/*--------------------------------*- C++ -*----------------------------------*\
| =========                 |                                                 |
| \\      /  F ield         | OpenFOAM: The Open Source CFD Toolbox           |
|  \\    /   O peration     | Version:  2.3.0                                 |
|   \\  /    A nd           | Web:      www.OpenFOAM.org                      |
|    \\/     M anipulation  |                                                 |
\*---------------------------------------------------------------------------*/
FoamFile
{
    version     2.0;
    format      ascii;
    class       dictionary;
    object      blockMeshDict;
}
// * * * * * * * * * * * * * * * * * * * * * * * * * * * * * * * * * * * * * //

convertToMeters 1;

vertices
(
        (0   1.0    -.1  )//0
        (13.929   1.0    -.1  )//1
        (13.929   1.4    -.1  )//2
        (0   1.4    -.1  )//3
        (0   1.0     .1  )//4
        (13.929   1.0     .1  )//5
        (13.929   1.4     .1  )//6
        (0   1.4     .1  )//7
        (13.929   2.024  -.1  )//8
        (0   2.024  -.1  )//9
        (0   2.024   .1  )//10
        (13.929   2.024   .1  )//11
);

blocks
(
        //hex (0 1 3 2 6 7 9 8) (40 25 30) simpleGrading (1 10.7028 1)
        hex (0 1 2 3 4 5 6 7)   (120 65 1) simpleGrading (1 10 1)
        hex (3 2 8 9 7 6 11 10) (120 65 1) simpleGrading (1 .1 1)
);

/*
edges
(
      spline 0 1 ((0.25 -0.1 0.1))
      spline 3 2 ((0.75  0.1 0.1))
);
*/

//EDGES-START
edges
(
spline 0 1 (
(0 1 -0.1)
(0.015 1 -0.1)
(0.03 1 -0.1)
(0.045 1 -0.1)
(0.06 1 -0.1)
(0.075 1 -0.1)
(0.09 1 -0.1)
(0.105 1 -0.1)
(0.12 1 -0.1)
(0.135 1 -0.1)
(0.15 1 -0.1)
(0.165 1 -0.1)
(0.18 0.999853500361723 -0.1)
(0.195 0.999546574964562 -0.1)
(0.21 0.999147670842287 -0.1)
(0.225 0.998646794216239 -0.1)
(0.24 0.998033951307763 -0.1)
(0.255 0.997299148338199 -0.1)
(0.27 0.996432391528892 -0.1)
(0.285 0.995423687101183 -0.1)
(0.3 0.994263041276416 -0.1)
(0.315 0.992940460275932 -0.1)
(0.33 0.991445950321075 -0.1)
(0.345 0.989769517633187 -0.1)
(0.36 0.987901168433611 -0.1)
(0.375 0.985830908943689 -0.1)
(0.39 0.983548745384765 -0.1)
(0.405 0.98104468397818 -0.1)
(0.42 0.978308730945277 -0.1)
(0.435 0.9753308925074 -0.1)
(0.45 0.97210117488589 -0.1)
(0.465 0.968609584302091 -0.1)
(0.48 0.964846126977344 -0.1)
(0.495 0.960802791061489 -0.1)
(0.51 0.956483795770945 -0.1)
(0.525 0.951898021524438 -0.1)
(0.54 0.947054357916131 -0.1)
(0.555 0.941961694540189 -0.1)
(0.57 0.936628920990776 -0.1)
(0.585 0.931064926862056 -0.1)
(0.6 0.925278601748195 -0.1)
(0.615 0.919278835243357 -0.1)
(0.63 0.913074516941706 -0.1)
(0.645 0.906674536437407 -0.1)
(0.66 0.900087783324624 -0.1)
(0.675 0.893323147197522 -0.1)
(0.69 0.886389517650265 -0.1)
(0.705 0.879295784277018 -0.1)
(0.72 0.872050836671945 -0.1)
(0.735 0.864663564429211 -0.1)
(0.75 0.857142857142802 -0.1)
(0.765 0.849497397992501 -0.1)
(0.78 0.841735044498589 -0.1)
(0.795 0.833863447766786 -0.1)
(0.81 0.825890258902813 -0.1)
(0.825 0.81782312901239 -0.1)
(0.84 0.809669709201238 -0.1)
(0.855 0.801437650575077 -0.1)
(0.87 0.793134604239629 -0.1)
(0.885 0.784768221300614 -0.1)
(0.9 0.776346152863751 -0.1)
(0.915 0.767876050034763 -0.1)
(0.93 0.75936556391937 -0.1)
(0.945 0.750822345623292 -0.1)
(0.96 0.742254046252249 -0.1)
(0.975 0.733668316911963 -0.1)
(0.99 0.725072808708154 -0.1)
(1.005 0.716475172746543 -0.1)
(1.02 0.70788306013285 -0.1)
(1.035 0.699304121972797 -0.1)
(1.05 0.690746009372103 -0.1)
(1.065 0.682216373436488 -0.1)
(1.08 0.673722597050246 -0.1)
(1.095 0.665267557822977 -0.1)
(1.11 0.656850395032062 -0.1)
(1.125 0.648470134799476 -0.1)
(1.14 0.640125803247193 -0.1)
(1.155 0.631816426497189 -0.1)
(1.17 0.623541030671437 -0.1)
(1.185 0.615298641891911 -0.1)
(1.2 0.607088286280585 -0.1)
(1.215 0.598908989959435 -0.1)
(1.23 0.590759779050434 -0.1)
(1.245 0.582639679675556 -0.1)
(1.26 0.574547717956777 -0.1)
(1.275 0.56648292001607 -0.1)
(1.29 0.558444311975409 -0.1)
(1.305 0.550430919956769 -0.1)
(1.32 0.542441770082123 -0.1)
(1.335 0.534475888473448 -0.1)
(1.35 0.526532301252716 -0.1)
(1.365 0.518610034541902 -0.1)
(1.38 0.51070811446298 -0.1)
(1.395 0.502825567137925 -0.1)
(1.41 0.494961418688711 -0.1)
(1.425 0.487114695237311 -0.1)
(1.44 0.479284422905702 -0.1)
(1.455 0.471469627815856 -0.1)
(1.47 0.463669336089748 -0.1)
(1.485 0.455882573849353 -0.1)
(1.5 0.448108367216644 -0.1)
(1.515 0.440345742313596 -0.1)
(1.53 0.432593725262183 -0.1)
(1.545 0.42485134218438 -0.1)
(1.56 0.417117619202161 -0.1)
(1.575 0.4093915824375 -0.1)
(1.59 0.401672258012371 -0.1)
(1.605 0.393958672048749 -0.1)
(1.62 0.386250262824374 -0.1)
(1.635 0.378549012147046 -0.1)
(1.65 0.370857871154237 -0.1)
(1.665 0.363179792890967 -0.1)
(1.68 0.355517730402261 -0.1)
(1.695 0.34787463673314 -0.1)
(1.71 0.340253464928624 -0.1)
(1.725 0.332657168033739 -0.1)
(1.74 0.325088699093504 -0.1)
(1.755 0.317551011152942 -0.1)
(1.77 0.310047057257075 -0.1)
(1.785 0.302579790450927 -0.1)
(1.8 0.295152163779517 -0.1)
(1.815 0.287767130287869 -0.1)
(1.83 0.280427643021005 -0.1)
(1.845 0.273136655023946 -0.1)
(1.86 0.265897119341715 -0.1)
(1.875 0.258711989019335 -0.1)
(1.89 0.251584217101826 -0.1)
(1.905 0.244516756634211 -0.1)
(1.92 0.237512560661514 -0.1)
(1.935 0.230574582228754 -0.1)
(1.95 0.223705774380955 -0.1)
(1.965 0.216909090163139 -0.1)
(1.98 0.210187482620327 -0.1)
(1.995 0.203543904797542 -0.1)
(2.01 0.196981309739806 -0.1)
(2.025 0.190502650492141 -0.1)
(2.04 0.18411088009957 -0.1)
(2.055 0.177808951607114 -0.1)
(2.07 0.171599818059795 -0.1)
(2.085 0.165486432502635 -0.1)
(2.1 0.159471747980657 -0.1)
(2.115 0.153558717538884 -0.1)
(2.13 0.147750294222336 -0.1)
(2.145 0.142049429701804 -0.1)
(2.16 0.136458377775419 -0.1)
(2.175 0.130977561007447 -0.1)
(2.19 0.125607105228765 -0.1)
(2.205 0.120347136270252 -0.1)
(2.22 0.115197779962784 -0.1)
(2.235 0.110159162137241 -0.1)
(2.25 0.105231408624498 -0.1)
(2.265 0.100414645255435 -0.1)
(2.28 0.0957089978609283 -0.1)
(2.295 0.0911145922718564 -0.1)
(2.31 0.0866315543190961 -0.1)
(2.325 0.0822600098335264 -0.1)
(2.34 0.0780000846460236 -0.1)
(2.355 0.0738519045874666 -0.1)
(2.37 0.0698155954887323 -0.1)
(2.385 0.065891283180699 -0.1)
(2.4 0.0620790934942436 -0.1)
(2.415 0.0583791522602445 -0.1)
(2.43 0.0547915853095795 -0.1)
(2.445 0.0513165184731258 -0.1)
(2.46 0.0479540775817618 -0.1)
(2.475 0.044704388466364 -0.1)
(2.49 0.0415675769578117 -0.1)
(2.505 0.0385437688869814 -0.1)
(2.52 0.0356330900847515 -0.1)
(2.535 0.0328356663819988 -0.1)
(2.55 0.0301516236096024 -0.1)
(2.565 0.0275810875984384 -0.1)
(2.58 0.0251241841793858 -0.1)
(2.595 0.0227810391833216 -0.1)
(2.61 0.020551778441124 -0.1)
(2.625 0.0184365277836701 -0.1)
(2.64 0.0164354130418385 -0.1)
(2.655 0.0145485600465056 -0.1)
(2.67 0.0127760946285508 -0.1)
(2.685 0.0111181426188502 -0.1)
(2.7 0.00957482984828257 -0.1)
(2.715 0.00814628214772479 -0.1)
(2.73 0.00683262534805575 -0.1)
(2.745 0.00563398528015166 -0.1)
(2.76 0.00455048777489175 -0.1)
(2.775 0.00358225866315216 -0.1)
(2.79 0.00272942377581192 -0.1)
(2.805 0.00199210894374819 -0.1)
(2.82 0.00137043999783872 -0.1)
(2.835 0.000864542768961212 -0.1)
(2.85 0.00047454308799336 -0.1)
(2.865 0.000200566785812896 -0.1)
(2.88 4.2739693297695e-05 -0.1)
(2.89428571428571 0 -0.1)
(2.90428571428571 0 -0.1)
(2.91428571428571 0 -0.1)
(2.92428571428571 0 -0.1)
(2.93428571428571 0 -0.1)
(2.94428571428571 0 -0.1)
(2.95428571428571 0 -0.1)
(2.96428571428571 0 -0.1)
(2.97428571428571 0 -0.1)
(2.98428571428571 0 -0.1)
(2.99428571428571 0 -0.1)
(3.00428571428571 0 -0.1)
(3.01428571428571 0 -0.1)
(3.02428571428571 0 -0.1)
(3.03428571428571 0 -0.1)
(3.04428571428571 0 -0.1)
(3.05428571428571 0 -0.1)
(3.06428571428571 0 -0.1)
(3.07428571428571 0 -0.1)
(3.08428571428571 0 -0.1)
(3.09428571428571 0 -0.1)
(3.10428571428571 0 -0.1)
(3.11428571428571 0 -0.1)
(3.12428571428571 0 -0.1)
(3.13428571428571 0 -0.1)
(3.14428571428571 0 -0.1)
(3.15428571428571 0 -0.1)
(3.16428571428571 0 -0.1)
(3.17428571428571 0 -0.1)
(3.18428571428571 0 -0.1)
(3.19428571428571 0 -0.1)
(3.20428571428571 0 -0.1)
(3.21428571428571 0 -0.1)
(3.22428571428571 0 -0.1)
(3.23428571428571 0 -0.1)
(3.24428571428571 0 -0.1)
(3.25428571428571 0 -0.1)
(3.26428571428571 0 -0.1)
(3.27428571428571 0 -0.1)
(3.28428571428571 0 -0.1)
(3.29428571428571 0 -0.1)
(3.30428571428571 0 -0.1)
(3.31428571428571 0 -0.1)
(3.32428571428571 0 -0.1)
(3.33428571428571 0 -0.1)
(3.34428571428571 0 -0.1)
(3.35428571428571 0 -0.1)
(3.36428571428571 0 -0.1)
(3.37428571428571 0 -0.1)
(3.38428571428571 0 -0.1)
(3.39428571428571 0 -0.1)
(3.40428571428571 0 -0.1)
(3.41428571428571 0 -0.1)
(3.42428571428571 0 -0.1)
(3.43428571428571 0 -0.1)
(3.44428571428571 0 -0.1)
(3.45428571428571 0 -0.1)
(3.46428571428571 0 -0.1)
(3.47428571428571 0 -0.1)
(3.48428571428571 0 -0.1)
(3.49428571428571 0 -0.1)
(3.50428571428571 0 -0.1)
(3.51428571428571 0 -0.1)
(3.52428571428571 0 -0.1)
(3.53428571428571 0 -0.1)
(3.54428571428571 0 -0.1)
(3.55428571428571 0 -0.1)
(3.56428571428571 0 -0.1)
(3.57428571428571 0 -0.1)
(3.58428571428571 0 -0.1)
(3.59428571428571 0 -0.1)
(3.60428571428571 0 -0.1)
(3.61428571428571 0 -0.1)
(3.62428571428571 0 -0.1)
(3.63428571428571 0 -0.1)
(3.64428571428571 0 -0.1)
(3.65428571428571 0 -0.1)
(3.66428571428571 0 -0.1)
(3.67428571428571 0 -0.1)
(3.68428571428571 0 -0.1)
(3.69428571428571 0 -0.1)
(3.70428571428571 0 -0.1)
(3.71428571428571 0 -0.1)
(3.72428571428571 0 -0.1)
(3.73428571428571 0 -0.1)
(3.74428571428571 0 -0.1)
(3.75428571428571 0 -0.1)
(3.76428571428571 0 -0.1)
(3.77428571428571 0 -0.1)
(3.78428571428571 0 -0.1)
(3.79428571428571 0 -0.1)
(3.80428571428571 0 -0.1)
(3.81428571428571 0 -0.1)
(3.82428571428571 0 -0.1)
(3.83428571428571 0 -0.1)
(3.84428571428571 0 -0.1)
(3.85428571428571 0 -0.1)
(3.86428571428571 0 -0.1)
(3.87428571428571 0 -0.1)
(3.88428571428571 0 -0.1)
(3.89428571428571 0 -0.1)
(3.90428571428571 0 -0.1)
(3.91428571428571 0 -0.1)
(3.92428571428571 0 -0.1)
(3.93428571428571 0 -0.1)
(3.94428571428571 0 -0.1)
(3.95428571428571 0 -0.1)
(3.96428571428571 0 -0.1)
(3.97428571428571 0 -0.1)
(3.98428571428571 0 -0.1)
(3.99428571428571 0 -0.1)
(4.00428571428571 0 -0.1)
(4.01428571428571 0 -0.1)
(4.02428571428571 0 -0.1)
(4.03428571428571 0 -0.1)
(4.04428571428571 0 -0.1)
(4.05428571428571 0 -0.1)
(4.06428571428571 0 -0.1)
(4.07428571428571 0 -0.1)
(4.08428571428571 0 -0.1)
(4.09428571428571 0 -0.1)
(4.10428571428571 0 -0.1)
(4.11428571428571 0 -0.1)
(4.12428571428571 0 -0.1)
(4.13428571428571 0 -0.1)
(4.14428571428571 0 -0.1)
(4.15428571428571 0 -0.1)
(4.16428571428571 0 -0.1)
(4.17428571428571 0 -0.1)
(4.18428571428571 0 -0.1)
(4.19428571428571 0 -0.1)
(4.20428571428571 0 -0.1)
(4.21428571428571 0 -0.1)
(4.22428571428571 0 -0.1)
(4.23428571428571 0 -0.1)
(4.24428571428571 0 -0.1)
(4.25428571428571 0 -0.1)
(4.26428571428571 0 -0.1)
(4.27428571428571 0 -0.1)
(4.28428571428571 0 -0.1)
(4.29428571428571 0 -0.1)
(4.30428571428571 0 -0.1)
(4.31428571428571 0 -0.1)
(4.32428571428571 0 -0.1)
(4.33428571428571 0 -0.1)
(4.34428571428571 0 -0.1)
(4.35428571428571 0 -0.1)
(4.36428571428571 0 -0.1)
(4.37428571428571 0 -0.1)
(4.38428571428571 0 -0.1)
(4.39428571428571 0 -0.1)
(4.40428571428571 0 -0.1)
(4.41428571428571 0 -0.1)
(4.42428571428571 0 -0.1)
(4.43428571428571 0 -0.1)
(4.44428571428571 0 -0.1)
(4.45428571428571 0 -0.1)
(4.46428571428571 0 -0.1)
(4.47428571428571 0 -0.1)
(4.48428571428571 0 -0.1)
(4.49428571428571 0 -0.1)
(4.50428571428571 0 -0.1)
(4.51428571428571 0 -0.1)
(4.52428571428571 0 -0.1)
(4.53428571428571 0 -0.1)
(4.54428571428571 0 -0.1)
(4.55428571428571 0 -0.1)
(4.56428571428571 0 -0.1)
(4.57428571428571 0 -0.1)
(4.58428571428571 0 -0.1)
(4.59428571428571 0 -0.1)
(4.60428571428571 0 -0.1)
(4.61428571428571 0 -0.1)
(4.62428571428571 0 -0.1)
(4.63428571428571 0 -0.1)
(4.64428571428571 0 -0.1)
(4.65428571428571 0 -0.1)
(4.66428571428571 0 -0.1)
(4.67428571428571 0 -0.1)
(4.68428571428571 0 -0.1)
(4.69428571428571 0 -0.1)
(4.70428571428571 0 -0.1)
(4.71428571428571 0 -0.1)
(4.72428571428571 0 -0.1)
(4.73428571428571 0 -0.1)
(4.74428571428571 0 -0.1)
(4.75428571428571 0 -0.1)
(4.76428571428571 0 -0.1)
(4.77428571428571 0 -0.1)
(4.78428571428571 0 -0.1)
(4.79428571428571 0 -0.1)
(4.80428571428571 0 -0.1)
(4.81428571428571 0 -0.1)
(4.82428571428571 0 -0.1)
(4.83428571428571 0 -0.1)
(4.84428571428571 0 -0.1)
(4.85428571428571 0 -0.1)
(4.86428571428571 0 -0.1)
(4.87428571428571 0 -0.1)
(4.88428571428571 0 -0.1)
(4.89428571428571 0 -0.1)
(4.90428571428571 0 -0.1)
(4.91428571428571 0 -0.1)
(4.92428571428571 0 -0.1)
(4.93428571428571 0 -0.1)
(4.94428571428571 0 -0.1)
(4.95428571428571 0 -0.1)
(4.96428571428571 0 -0.1)
(4.97428571428571 0 -0.1)
(4.98428571428571 0 -0.1)
(4.99428571428571 0 -0.1)
(5.00428571428571 0 -0.1)
(5.01428571428571 0 -0.1)
(5.02428571428571 0 -0.1)
(5.03428571428571 0 -0.1)
(5.04428571428571 0 -0.1)
(5.05428571428571 0 -0.1)
(5.06428571428571 0 -0.1)
(5.07428571428571 0 -0.1)
(5.08428571428571 0 -0.1)
(5.09428571428571 0 -0.1)
(5.10428571428571 0 -0.1)
(5.11428571428571 0 -0.1)
(5.12428571428571 0 -0.1)
(5.13428571428571 0 -0.1)
(5.14428571428571 0 -0.1)
(5.15428571428571 0 -0.1)
(5.16428571428571 0 -0.1)
(5.17428571428571 0 -0.1)
(5.18428571428571 0 -0.1)
(5.19428571428571 0 -0.1)
(5.20428571428571 0 -0.1)
(5.21428571428571 0 -0.1)
(5.22428571428571 0 -0.1)
(5.23428571428571 0 -0.1)
(5.24428571428571 0 -0.1)
(5.25428571428571 0 -0.1)
(5.26428571428571 0 -0.1)
(5.27428571428571 0 -0.1)
(5.28428571428571 0 -0.1)
(5.29428571428571 0 -0.1)
(5.30428571428571 0 -0.1)
(5.31428571428571 0 -0.1)
(5.32428571428571 0 -0.1)
(5.33428571428571 0 -0.1)
(5.34428571428571 0 -0.1)
(5.35428571428571 0 -0.1)
(5.36428571428571 0 -0.1)
(5.37428571428571 0 -0.1)
(5.38428571428571 0 -0.1)
(5.39428571428571 0 -0.1)
(5.40428571428571 0 -0.1)
(5.41428571428571 0 -0.1)
(5.42428571428571 0 -0.1)
(5.43428571428571 0 -0.1)
(5.44428571428571 0 -0.1)
(5.45428571428571 0 -0.1)
(5.46428571428571 0 -0.1)
(5.47428571428571 0 -0.1)
(5.48428571428571 0 -0.1)
(5.49428571428571 0 -0.1)
(5.50428571428571 0 -0.1)
(5.51428571428571 0 -0.1)
(5.52428571428571 0 -0.1)
(5.53428571428571 0 -0.1)
(5.54428571428571 0 -0.1)
(5.55428571428571 0 -0.1)
(5.56428571428571 0 -0.1)
(5.57428571428571 0 -0.1)
(5.58428571428571 0 -0.1)
(5.59428571428571 0 -0.1)
(5.60428571428571 0 -0.1)
(5.61428571428571 0 -0.1)
(5.62428571428571 0 -0.1)
(5.63428571428571 0 -0.1)
(5.64428571428571 0 -0.1)
(5.65428571428571 0 -0.1)
(5.66428571428571 0 -0.1)
(5.67428571428571 0 -0.1)
(5.68428571428571 0 -0.1)
(5.69428571428571 0 -0.1)
(5.70428571428571 0 -0.1)
(5.71428571428571 0 -0.1)
(5.72428571428571 0 -0.1)
(5.73428571428571 0 -0.1)
(5.74428571428571 0 -0.1)
(5.75428571428571 0 -0.1)
(5.76428571428571 0 -0.1)
(5.77428571428571 0 -0.1)
(5.78428571428571 0 -0.1)
(5.79428571428571 0 -0.1)
(5.80428571428571 0 -0.1)
(5.81428571428571 0 -0.1)
(5.82428571428571 0 -0.1)
(5.83428571428571 0 -0.1)
(5.84428571428571 0 -0.1)
(5.85428571428571 0 -0.1)
(5.86428571428571 0 -0.1)
(5.87428571428571 0 -0.1)
(5.88428571428571 0 -0.1)
(5.89428571428571 0 -0.1)
(5.90428571428571 0 -0.1)
(5.91428571428571 0 -0.1)
(5.92428571428571 0 -0.1)
(5.93428571428571 0 -0.1)
(5.94428571428571 0 -0.1)
(5.95428571428571 0 -0.1)
(5.96428571428571 0 -0.1)
(5.97428571428571 0 -0.1)
(5.98428571428571 0 -0.1)
(5.99428571428571 0 -0.1)
(6.00428571428571 0 -0.1)
(6.01428571428571 0 -0.1)
(6.02428571428571 0 -0.1)
(6.03428571428571 0 -0.1)
(6.04428571428571 0 -0.1)
(6.05428571428571 0 -0.1)
(6.06428571428571 0 -0.1)
(6.07428571428571 0 -0.1)
(6.08428571428571 0 -0.1)
(6.09428571428571 0 -0.1)
(6.10428571428571 0 -0.1)
(6.11428571428571 0 -0.1)
(6.12428571428571 0 -0.1)
(6.13428571428571 0 -0.1)
(6.14428571428571 0 -0.1)
(6.15428571428571 0 -0.1)
(6.16428571428571 0 -0.1)
(6.17428571428571 0 -0.1)
(6.18428571428571 0 -0.1)
(6.19428571428571 0 -0.1)
(6.20428571428571 0 -0.1)
(6.21428571428571 0 -0.1)
(6.22428571428571 0 -0.1)
(6.23428571428571 0 -0.1)
(6.24428571428571 0 -0.1)
(6.25428571428571 0 -0.1)
(6.26428571428571 0 -0.1)
(6.27428571428571 0 -0.1)
(6.28428571428571 0 -0.1)
(6.29428571428571 0 -0.1)
(6.30428571428571 0 -0.1)
(6.31428571428571 0 -0.1)
(6.32428571428571 0 -0.1)
(6.33428571428571 0 -0.1)
(6.34428571428571 0 -0.1)
(6.35428571428571 0 -0.1)
(6.36428571428571 0 -0.1)
(6.37428571428571 0 -0.1)
(6.38428571428571 0 -0.1)
(6.39428571428571 0 -0.1)
(6.40428571428571 0 -0.1)
(6.41428571428571 0 -0.1)
(6.42428571428571 0 -0.1)
(6.43428571428571 0 -0.1)
(6.44428571428571 0 -0.1)
(6.45428571428571 0 -0.1)
(6.46428571428571 0 -0.1)
(6.47428571428571 0 -0.1)
(6.48428571428571 0 -0.1)
(6.49428571428571 0 -0.1)
(6.50428571428571 0 -0.1)
(6.51428571428571 0 -0.1)
(6.52428571428571 0 -0.1)
(6.53428571428571 0 -0.1)
(6.54428571428571 0 -0.1)
(6.55428571428571 0 -0.1)
(6.56428571428571 0 -0.1)
(6.57428571428571 0 -0.1)
(6.58428571428571 0 -0.1)
(6.59428571428571 0 -0.1)
(6.60428571428571 0 -0.1)
(6.61428571428571 0 -0.1)
(6.62428571428571 0 -0.1)
(6.63428571428571 0 -0.1)
(6.64428571428571 0 -0.1)
(6.65428571428571 0 -0.1)
(6.66428571428571 0 -0.1)
(6.67428571428571 0 -0.1)
(6.68428571428571 0 -0.1)
(6.69428571428571 0 -0.1)
(6.70428571428571 0 -0.1)
(6.71428571428571 0 -0.1)
(6.72428571428571 0 -0.1)
(6.73428571428571 0 -0.1)
(6.74428571428571 0 -0.1)
(6.75428571428571 0 -0.1)
(6.76428571428571 0 -0.1)
(6.77428571428571 0 -0.1)
(6.78428571428571 0 -0.1)
(6.79428571428571 0 -0.1)
(6.80428571428571 0 -0.1)
(6.81428571428571 0 -0.1)
(6.82428571428571 0 -0.1)
(6.83428571428571 0 -0.1)
(6.84428571428571 0 -0.1)
(6.85428571428571 0 -0.1)
(6.86428571428571 0 -0.1)
(6.87428571428571 0 -0.1)
(6.88428571428571 0 -0.1)
(6.89428571428571 0 -0.1)
(6.90428571428571 0 -0.1)
(6.91428571428571 0 -0.1)
(6.92428571428571 0 -0.1)
(6.93428571428571 0 -0.1)
(6.94428571428571 0 -0.1)
(6.95428571428571 0 -0.1)
(6.96428571428571 0 -0.1)
(6.97428571428571 0 -0.1)
(6.98428571428571 0 -0.1)
(6.99428571428571 0 -0.1)
(7.00428571428571 0 -0.1)
(7.01428571428571 0 -0.1)
(7.02428571428571 0 -0.1)
(7.03428571428571 0 -0.1)
(7.04428571428571 0 -0.1)
(7.05428571428571 0 -0.1)
(7.06428571428571 0 -0.1)
(7.07428571428571 0 -0.1)
(7.08428571428571 0 -0.1)
(7.09428571428571 0 -0.1)
(7.10428571428571 0 -0.1)
(7.11428571428571 0 -0.1)
(7.12428571428571 0 -0.1)
(7.13428571428571 0 -0.1)
(7.14428571428571 0 -0.1)
(7.15428571428571 0 -0.1)
(7.16428571428571 0 -0.1)
(7.17428571428571 0 -0.1)
(7.18428571428571 0 -0.1)
(7.19428571428571 0 -0.1)
(7.20428571428571 0 -0.1)
(7.21428571428571 0 -0.1)
(7.22428571428571 0 -0.1)
(7.23428571428571 0 -0.1)
(7.24428571428571 0 -0.1)
(7.25428571428571 0 -0.1)
(7.26428571428571 0 -0.1)
(7.27428571428571 0 -0.1)
(7.28428571428571 0 -0.1)
(7.29428571428571 0 -0.1)
(7.30428571428571 0 -0.1)
(7.31428571428571 0 -0.1)
(7.32428571428571 0 -0.1)
(7.33428571428571 0 -0.1)
(7.34428571428571 0 -0.1)
(7.35428571428571 0 -0.1)
(7.36428571428571 0 -0.1)
(7.37428571428571 0 -0.1)
(7.38428571428571 0 -0.1)
(7.39428571428571 0 -0.1)
(7.40428571428571 0 -0.1)
(7.41428571428571 0 -0.1)
(7.42428571428571 0 -0.1)
(7.43428571428571 0 -0.1)
(7.44428571428571 0 -0.1)
(7.45428571428571 0 -0.1)
(7.46428571428571 0 -0.1)
(7.47428571428571 0 -0.1)
(7.48428571428571 0 -0.1)
(7.49428571428571 0 -0.1)
(7.50428571428571 0 -0.1)
(7.51428571428571 0 -0.1)
(7.52428571428571 0 -0.1)
(7.53428571428571 0 -0.1)
(7.54428571428571 0 -0.1)
(7.55428571428571 0 -0.1)
(7.56428571428571 0 -0.1)
(7.57428571428571 0 -0.1)
(7.58428571428571 0 -0.1)
(7.59428571428571 0 -0.1)
(7.60428571428571 0 -0.1)
(7.61428571428571 0 -0.1)
(7.62428571428571 0 -0.1)
(7.63428571428571 0 -0.1)
(7.64428571428571 0 -0.1)
(7.65428571428571 0 -0.1)
(7.66428571428571 0 -0.1)
(7.67428571428571 0 -0.1)
(7.68428571428571 0 -0.1)
(7.69428571428571 0 -0.1)
(7.70428571428571 0 -0.1)
(7.71428571428571 0 -0.1)
(7.72428571428571 0 -0.1)
(7.73428571428571 0 -0.1)
(7.74428571428571 0 -0.1)
(7.75428571428571 0 -0.1)
(7.76428571428571 0 -0.1)
(7.77428571428571 0 -0.1)
(7.78428571428571 0 -0.1)
(7.79428571428571 0 -0.1)
(7.80428571428571 0 -0.1)
(7.81428571428571 0 -0.1)
(7.82428571428571 0 -0.1)
(7.83428571428571 0 -0.1)
(7.84428571428571 0 -0.1)
(7.85428571428571 0 -0.1)
(7.86428571428571 0 -0.1)
(7.87428571428571 0 -0.1)
(7.88428571428571 0 -0.1)
(7.89428571428571 0 -0.1)
(7.90428571428571 0 -0.1)
(7.91428571428571 0 -0.1)
(7.92428571428571 0 -0.1)
(7.93428571428571 0 -0.1)
(7.94428571428571 0 -0.1)
(7.95428571428571 0 -0.1)
(7.96428571428571 0 -0.1)
(7.97428571428571 0 -0.1)
(7.98428571428571 0 -0.1)
(7.99428571428571 0 -0.1)
(8.00428571428571 0 -0.1)
(8.01428571428571 0 -0.1)
(8.02428571428571 0 -0.1)
(8.03428571428571 0 -0.1)
(8.04428571428571 0 -0.1)
(8.05428571428571 0 -0.1)
(8.06428571428571 0 -0.1)
(8.07428571428571 0 -0.1)
(8.08428571428571 0 -0.1)
(8.09428571428571 0 -0.1)
(8.10428571428571 0 -0.1)
(8.11428571428571 0 -0.1)
(8.12428571428571 0 -0.1)
(8.13428571428571 0 -0.1)
(8.14428571428571 0 -0.1)
(8.15428571428571 0 -0.1)
(8.16428571428571 0 -0.1)
(8.17428571428571 0 -0.1)
(8.18428571428571 0 -0.1)
(8.19428571428571 0 -0.1)
(8.20428571428571 0 -0.1)
(8.21428571428571 0 -0.1)
(8.22428571428571 0 -0.1)
(8.23428571428571 0 -0.1)
(8.24428571428571 0 -0.1)
(8.25428571428571 0 -0.1)
(8.26428571428571 0 -0.1)
(8.27428571428571 0 -0.1)
(8.28428571428571 0 -0.1)
(8.29428571428571 0 -0.1)
(8.30428571428571 0 -0.1)
(8.31428571428571 0 -0.1)
(8.32428571428571 0 -0.1)
(8.33428571428571 0 -0.1)
(8.34428571428571 0 -0.1)
(8.35428571428571 0 -0.1)
(8.36428571428571 0 -0.1)
(8.37428571428571 0 -0.1)
(8.38428571428571 0 -0.1)
(8.39428571428571 0 -0.1)
(8.40428571428571 0 -0.1)
(8.41428571428571 0 -0.1)
(8.42428571428571 0 -0.1)
(8.43428571428571 0 -0.1)
(8.44428571428571 0 -0.1)
(8.45428571428571 0 -0.1)
(8.46428571428571 0 -0.1)
(8.47428571428571 0 -0.1)
(8.48428571428571 0 -0.1)
(8.49428571428571 0 -0.1)
(8.50428571428571 0 -0.1)
(8.51428571428571 0 -0.1)
(8.52428571428571 0 -0.1)
(8.53428571428571 0 -0.1)
(8.54428571428571 0 -0.1)
(8.55428571428571 0 -0.1)
(8.56428571428571 0 -0.1)
(8.57428571428571 0 -0.1)
(8.58428571428571 0 -0.1)
(8.59428571428571 0 -0.1)
(8.60428571428571 0 -0.1)
(8.61428571428571 0 -0.1)
(8.62428571428571 0 -0.1)
(8.63428571428571 0 -0.1)
(8.64428571428571 0 -0.1)
(8.65428571428571 0 -0.1)
(8.66428571428571 0 -0.1)
(8.67428571428571 0 -0.1)
(8.68428571428571 0 -0.1)
(8.69428571428571 0 -0.1)
(8.70428571428571 0 -0.1)
(8.71428571428571 0 -0.1)
(8.72428571428571 0 -0.1)
(8.73428571428571 0 -0.1)
(8.74428571428571 0 -0.1)
(8.75428571428571 0 -0.1)
(8.76428571428571 0 -0.1)
(8.77428571428571 0 -0.1)
(8.78428571428571 0 -0.1)
(8.79428571428571 0 -0.1)
(8.80428571428571 0 -0.1)
(8.81428571428571 0 -0.1)
(8.82428571428571 0 -0.1)
(8.83428571428571 0 -0.1)
(8.84428571428571 0 -0.1)
(8.85428571428571 0 -0.1)
(8.86428571428571 0 -0.1)
(8.87428571428571 0 -0.1)
(8.88428571428571 0 -0.1)
(8.89428571428571 0 -0.1)
(8.90428571428571 0 -0.1)
(8.91428571428571 0 -0.1)
(8.92428571428571 0 -0.1)
(8.93428571428571 0 -0.1)
(8.94428571428571 0 -0.1)
(8.95428571428571 0 -0.1)
(8.96428571428571 0 -0.1)
(8.97428571428571 0 -0.1)
(8.98428571428571 0 -0.1)
(8.99428571428571 0 -0.1)
(9.00428571428571 0 -0.1)
(9.01428571428571 0 -0.1)
(9.02428571428571 0 -0.1)
(9.03428571428571 0 -0.1)
(9.04428571428571 0 -0.1)
(9.05428571428571 0 -0.1)
(9.06428571428571 0 -0.1)
(9.07428571428571 0 -0.1)
(9.08428571428571 0 -0.1)
(9.09428571428571 0 -0.1)
(9.10428571428571 0 -0.1)
(9.11428571428571 0 -0.1)
(9.12428571428571 0 -0.1)
(9.13428571428571 0 -0.1)
(9.14428571428571 0 -0.1)
(9.15428571428571 0 -0.1)
(9.16428571428571 0 -0.1)
(9.17428571428571 0 -0.1)
(9.18428571428571 0 -0.1)
(9.19428571428571 0 -0.1)
(9.20428571428571 0 -0.1)
(9.21428571428571 0 -0.1)
(9.22428571428571 0 -0.1)
(9.23428571428571 0 -0.1)
(9.24428571428571 0 -0.1)
(9.25428571428571 0 -0.1)
(9.26428571428571 0 -0.1)
(9.27428571428571 0 -0.1)
(9.28428571428571 0 -0.1)
(9.29428571428571 0 -0.1)
(9.30428571428571 0 -0.1)
(9.31428571428571 0 -0.1)
(9.32428571428571 0 -0.1)
(9.33428571428571 0 -0.1)
(9.34428571428571 0 -0.1)
(9.35428571428571 0 -0.1)
(9.36428571428571 0 -0.1)
(9.37428571428571 0 -0.1)
(9.38428571428571 0 -0.1)
(9.39428571428571 0 -0.1)
(9.40428571428571 0 -0.1)
(9.41428571428571 0 -0.1)
(9.42428571428571 0 -0.1)
(9.43428571428571 0 -0.1)
(9.44428571428571 0 -0.1)
(9.45428571428571 0 -0.1)
(9.46428571428571 0 -0.1)
(9.47428571428571 0 -0.1)
(9.48428571428571 0 -0.1)
(9.49428571428571 0 -0.1)
(9.50428571428571 0 -0.1)
(9.51428571428571 0 -0.1)
(9.52428571428571 0 -0.1)
(9.53428571428571 0 -0.1)
(9.54428571428571 0 -0.1)
(9.55428571428571 0 -0.1)
(9.56428571428571 0 -0.1)
(9.57428571428571 0 -0.1)
(9.58428571428571 0 -0.1)
(9.59428571428571 0 -0.1)
(9.60428571428571 0 -0.1)
(9.61428571428571 0 -0.1)
(9.62428571428571 0 -0.1)
(9.63428571428571 0 -0.1)
(9.64428571428571 0 -0.1)
(9.65428571428571 0 -0.1)
(9.66428571428571 0 -0.1)
(9.67428571428571 0 -0.1)
(9.68428571428571 0 -0.1)
(9.69428571428571 0 -0.1)
(9.70428571428571 0 -0.1)
(9.71428571428571 0 -0.1)
(9.72428571428571 0 -0.1)
(9.73428571428571 0 -0.1)
(9.74428571428571 0 -0.1)
(9.75428571428571 0 -0.1)
(9.76428571428571 0 -0.1)
(9.77428571428571 0 -0.1)
(9.78428571428571 0 -0.1)
(9.79428571428571 0 -0.1)
(9.80428571428571 0 -0.1)
(9.81428571428571 0 -0.1)
(9.82428571428571 0 -0.1)
(9.83428571428571 0 -0.1)
(9.84428571428571 0 -0.1)
(9.85428571428571 0 -0.1)
(9.86428571428571 0 -0.1)
(9.87428571428571 0 -0.1)
(9.88428571428571 0 -0.1)
(9.89428571428571 0 -0.1)
(9.90428571428571 0 -0.1)
(9.91428571428571 0 -0.1)
(9.92428571428571 0 -0.1)
(9.93428571428571 0 -0.1)
(9.94428571428571 0 -0.1)
(9.95428571428571 0 -0.1)
(9.96428571428571 0 -0.1)
(9.97428571428571 0 -0.1)
(9.98428571428571 0 -0.1)
(9.99428571428571 0 -0.1)
(10.00428571428571 0 -0.1)
(10.01428571428571 0 -0.1)
(10.02428571428571 0 -0.1)
(10.03428571428571 0 -0.1)
(10.04428571428571 0 -0.1)
(10.05428571428571 0 -0.1)
(10.06428571428571 0 -0.1)
(10.07428571428571 0 -0.1)
(10.08428571428571 0 -0.1)
(10.09428571428571 0 -0.1)
(10.10428571428571 0 -0.1)
(10.11428571428571 0 -0.1)
(10.12428571428571 0 -0.1)
(10.13428571428571 0 -0.1)
(10.14428571428571 0 -0.1)
(10.15428571428571 0 -0.1)
(10.16428571428571 0 -0.1)
(10.17428571428571 0 -0.1)
(10.18428571428571 0 -0.1)
(10.19428571428571 0 -0.1)
(10.20428571428571 0 -0.1)
(10.21428571428571 0 -0.1)
(10.22428571428571 0 -0.1)
(10.23428571428571 0 -0.1)
(10.24428571428571 0 -0.1)
(10.25428571428571 0 -0.1)
(10.26428571428571 0 -0.1)
(10.27428571428571 0 -0.1)
(10.28428571428571 0 -0.1)
(10.29428571428571 0 -0.1)
(10.30428571428571 0 -0.1)
(10.31428571428571 0 -0.1)
(10.32428571428571 0 -0.1)
(10.33428571428571 0 -0.1)
(10.34428571428571 0 -0.1)
(10.35428571428571 0 -0.1)
(10.36428571428571 0 -0.1)
(10.37428571428571 0 -0.1)
(10.38428571428571 0 -0.1)
(10.39428571428571 0 -0.1)
(10.40428571428571 0 -0.1)
(10.41428571428571 0 -0.1)
(10.42428571428571 0 -0.1)
(10.43428571428571 0 -0.1)
(10.44428571428571 0 -0.1)
(10.45428571428571 0 -0.1)
(10.46428571428571 0 -0.1)
(10.47428571428571 0 -0.1)
(10.48428571428571 0 -0.1)
(10.49428571428571 0 -0.1)
(10.50428571428571 0 -0.1)
(10.51428571428571 0 -0.1)
(10.52428571428571 0 -0.1)
(10.53428571428571 0 -0.1)
(10.54428571428571 0 -0.1)
(10.55428571428571 0 -0.1)
(10.56428571428571 0 -0.1)
(10.57428571428571 0 -0.1)
(10.58428571428571 0 -0.1)
(10.59428571428571 0 -0.1)
(10.60428571428571 0 -0.1)
(10.61428571428571 0 -0.1)
(10.62428571428571 0 -0.1)
(10.63428571428571 0 -0.1)
(10.64428571428571 0 -0.1)
(10.65428571428571 0 -0.1)
(10.66428571428571 0 -0.1)
(10.67428571428571 0 -0.1)
(10.68428571428571 0 -0.1)
(10.69428571428571 0 -0.1)
(10.70428571428571 0 -0.1)
(10.71428571428571 0 -0.1)
(10.72428571428571 0 -0.1)
(10.73428571428571 0 -0.1)
(10.74428571428571 0 -0.1)
(10.75428571428571 0 -0.1)
(10.76428571428571 0 -0.1)
(10.77428571428571 0 -0.1)
(10.78428571428571 0 -0.1)
(10.79428571428571 0 -0.1)
(10.80428571428571 0 -0.1)
(10.81428571428571 0 -0.1)
(10.82428571428571 0 -0.1)
(10.83428571428571 0 -0.1)
(10.84428571428571 0 -0.1)
(10.85428571428571 0 -0.1)
(10.86428571428571 0 -0.1)
(10.87428571428571 0 -0.1)
(10.88428571428571 0 -0.1)
(10.89428571428571 0 -0.1)
(10.90428571428571 0 -0.1)
(10.91428571428571 0 -0.1)
(10.92428571428571 0 -0.1)
(10.93428571428571 0 -0.1)
(10.94428571428571 0 -0.1)
(10.95428571428571 0 -0.1)
(10.96428571428571 0 -0.1)
(10.97428571428571 0 -0.1)
(10.98428571428571 0 -0.1)
(10.99428571428571 0 -0.1)
(11.00428571428571 0 -0.1)
(11.01428571428571 0 -0.1)
(11.02428571428571 0 -0.1)
(11.03428571428571 0 -0.1)
(11.04857142857143 4.27396932978853e-05 -0.1)
(11.06357142857143 0.000200566785812769 -0.1)
(11.07857142857143 0.000474543087993487 -0.1)
(11.09357142857143 0.000864542768961101 -0.1)
(11.10857142857143 0.00137043999783886 -0.1)
(11.12357142857143 0.0019921089437483 -0.1)
(11.13857142857143 0.00272942377581226 -0.1)
(11.15357142857143 0.00358225866315225 -0.1)
(11.16857142857143 0.00455048777489158 -0.1)
(11.18357142857143 0.0056339852801517 -0.1)
(11.19857142857143 0.00683262534805581 -0.1)
(11.21357142857143 0.0081462821477249 -0.1)
(11.22857142857143 0.00957482984828263 -0.1)
(11.24357142857143 0.0111181426188502 -0.1)
(11.25857142857143 0.0127760946285508 -0.1)
(11.27357142857143 0.0145485600465056 -0.1)
(11.28857142857143 0.0164354130418385 -0.1)
(11.30357142857143 0.0184365277836701 -0.1)
(11.31857142857143 0.020551778441124 -0.1)
(11.33357142857143 0.0227810391833216 -0.1)
(11.34857142857143 0.0251241841793858 -0.1)
(11.36357142857143 0.0275810875984384 -0.1)
(11.37857142857143 0.0301516236096021 -0.1)
(11.39357142857143 0.0328356663819988 -0.1)
(11.40857142857143 0.0356330900847517 -0.1)
(11.42357142857143 0.0385437688869816 -0.1)
(11.43857142857143 0.0415675769578115 -0.1)
(11.45357142857143 0.0447043884663645 -0.1)
(11.46857142857143 0.047954077581762 -0.1)
(11.48357142857143 0.0513165184731262 -0.1)
(11.49857142857143 0.0547915853095796 -0.1)
(11.51357142857143 0.0583791522602451 -0.1)