/*--------------------------------*- C++ -*----------------------------------*\
| =========                 |                                                 |
| \\      /  F ield         | OpenFOAM: The Open Source CFD Toolbox           |
|  \\    /   O peration     | Version:  2.3.0                                 |
|   \\  /    A nd           | Web:      www.OpenFOAM.org                      |
|    \\/     M anipulation  |                                                 |
\*---------------------------------------------------------------------------*/
FoamFile
{
    version     2.0;
    format      ascii;
    class       dictionary;
    object      blockMeshDict;
}
// * * * * * * * * * * * * * * * * * * * * * * * * * * * * * * * * * * * * * //

convertToMeters 1;

vertices
(
        (0   1.0    -.1  )//0
        (10.071   1.0    -.1  )//1
        (10.071   2.0    -.1  )//2
        (0   2.0    -.1  )//3
        (0   1.0     .1  )//4
        (10.071   1.0     .1  )//5
        (10.071   2.0     .1  )//6
        (0   2.0     .1  )//7
        (10.071   3.036  -.1  )//8
        (0   3.036  -.1  )//9
        (0   3.036   .1  )//10
        (10.071   3.036   .1  )//11
);

blocks
(
        //hex (0 1 3 2 6 7 9 8) (40 25 30) simpleGrading (1 10.7028 1)
        hex (0 1 2 3 4 5 6 7)   (120 65 1) simpleGrading (1 10 1)
        hex (3 2 8 9 7 6 11 10) (120 65 1) simpleGrading (1 .1 1)
);

/*
edges
(
      spline 0 1 ((0.25 -0.1 0.1))
      spline 3 2 ((0.75  0.1 0.1))
);
*/

//EDGES-START
edges
(
spline 0 1 (
(0 1 -0.1)
(0.005 1 -0.1)
(0.01 1 -0.1)
(0.015 1 -0.1)
(0.02 1 -0.1)
(0.025 1 -0.1)
(0.03 1 -0.1)
(0.035 1 -0.1)
(0.04 1 -0.1)
(0.045 1 -0.1)
(0.05 1 -0.1)
(0.055 1 -0.1)
(0.06 0.999853500361723 -0.1)
(0.065 0.999546574964562 -0.1)
(0.07 0.999147670842287 -0.1)
(0.075 0.998646794216239 -0.1)
(0.08 0.998033951307763 -0.1)
(0.085 0.997299148338199 -0.1)
(0.09 0.996432391528892 -0.1)
(0.095 0.995423687101183 -0.1)
(0.1 0.994263041276416 -0.1)
(0.105 0.992940460275932 -0.1)
(0.11 0.991445950321075 -0.1)
(0.115 0.989769517633187 -0.1)
(0.12 0.987901168433611 -0.1)
(0.125 0.985830908943689 -0.1)
(0.13 0.983548745384765 -0.1)
(0.135 0.98104468397818 -0.1)
(0.14 0.978308730945277 -0.1)
(0.145 0.9753308925074 -0.1)
(0.15 0.97210117488589 -0.1)
(0.155 0.968609584302091 -0.1)
(0.16 0.964846126977344 -0.1)
(0.165 0.960802791061489 -0.1)
(0.17 0.956483795770945 -0.1)
(0.175 0.951898021524438 -0.1)
(0.18 0.947054357916131 -0.1)
(0.185 0.941961694540189 -0.1)
(0.19 0.936628920990776 -0.1)
(0.195 0.931064926862056 -0.1)
(0.2 0.925278601748195 -0.1)
(0.205 0.919278835243357 -0.1)
(0.21 0.913074516941706 -0.1)
(0.215 0.906674536437407 -0.1)
(0.22 0.900087783324624 -0.1)
(0.225 0.893323147197522 -0.1)
(0.23 0.886389517650265 -0.1)
(0.235 0.879295784277018 -0.1)
(0.24 0.872050836671945 -0.1)
(0.245 0.864663564429211 -0.1)
(0.25 0.857142857142802 -0.1)
(0.255 0.849497397992501 -0.1)
(0.26 0.841735044498589 -0.1)
(0.265 0.833863447766786 -0.1)
(0.27 0.825890258902813 -0.1)
(0.275 0.81782312901239 -0.1)
(0.28 0.809669709201238 -0.1)
(0.285 0.801437650575077 -0.1)
(0.29 0.793134604239629 -0.1)
(0.295 0.784768221300614 -0.1)
(0.3 0.776346152863751 -0.1)
(0.305 0.767876050034763 -0.1)
(0.31 0.75936556391937 -0.1)
(0.315 0.750822345623292 -0.1)
(0.32 0.742254046252249 -0.1)
(0.325 0.733668316911963 -0.1)
(0.33 0.725072808708154 -0.1)
(0.335 0.716475172746543 -0.1)
(0.34 0.70788306013285 -0.1)
(0.345 0.699304121972797 -0.1)
(0.35 0.690746009372103 -0.1)
(0.355 0.682216373436488 -0.1)
(0.36 0.673722597050246 -0.1)
(0.365 0.665267557822977 -0.1)
(0.37 0.656850395032062 -0.1)
(0.375 0.648470134799476 -0.1)
(0.38 0.640125803247193 -0.1)
(0.385 0.631816426497189 -0.1)
(0.39 0.623541030671437 -0.1)
(0.395 0.615298641891911 -0.1)
(0.4 0.607088286280585 -0.1)
(0.405 0.598908989959435 -0.1)
(0.41 0.590759779050434 -0.1)
(0.415 0.582639679675556 -0.1)
(0.42 0.574547717956777 -0.1)
(0.425 0.56648292001607 -0.1)
(0.43 0.558444311975409 -0.1)
(0.435 0.550430919956769 -0.1)
(0.44 0.542441770082123 -0.1)
(0.445 0.534475888473448 -0.1)
(0.45 0.526532301252716 -0.1)
(0.455 0.518610034541902 -0.1)
(0.46 0.51070811446298 -0.1)
(0.465 0.502825567137925 -0.1)
(0.47 0.494961418688711 -0.1)
(0.475 0.487114695237311 -0.1)
(0.48 0.479284422905702 -0.1)
(0.485 0.471469627815856 -0.1)
(0.49 0.463669336089748 -0.1)
(0.495 0.455882573849353 -0.1)
(0.5 0.448108367216644 -0.1)
(0.505 0.440345742313596 -0.1)
(0.51 0.432593725262183 -0.1)
(0.515 0.42485134218438 -0.1)
(0.52 0.417117619202161 -0.1)
(0.525 0.4093915824375 -0.1)
(0.53 0.401672258012371 -0.1)
(0.535 0.393958672048749 -0.1)
(0.54 0.386250262824374 -0.1)
(0.545 0.378549012147046 -0.1)
(0.55 0.370857871154237 -0.1)
(0.555 0.363179792890967 -0.1)
(0.56 0.355517730402261 -0.1)
(0.565 0.34787463673314 -0.1)
(0.57 0.340253464928624 -0.1)
(0.575 0.332657168033739 -0.1)
(0.58 0.325088699093504 -0.1)
(0.585 0.317551011152942 -0.1)
(0.59 0.310047057257075 -0.1)
(0.595 0.302579790450927 -0.1)
(0.6 0.295152163779517 -0.1)
(0.605 0.287767130287869 -0.1)
(0.61 0.280427643021005 -0.1)
(0.615 0.273136655023946 -0.1)
(0.62 0.265897119341715 -0.1)
(0.625 0.258711989019335 -0.1)
(0.63 0.251584217101826 -0.1)
(0.635 0.244516756634211 -0.1)
(0.64 0.237512560661514 -0.1)
(0.645 0.230574582228754 -0.1)
(0.65 0.223705774380955 -0.1)
(0.655 0.216909090163139 -0.1)
(0.66 0.210187482620327 -0.1)
(0.665 0.203543904797542 -0.1)
(0.67 0.196981309739806 -0.1)
(0.675 0.190502650492141 -0.1)
(0.68 0.18411088009957 -0.1)
(0.685 0.177808951607114 -0.1)
(0.69 0.171599818059795 -0.1)
(0.695 0.165486432502635 -0.1)
(0.7 0.159471747980657 -0.1)
(0.705 0.153558717538884 -0.1)
(0.71 0.147750294222336 -0.1)
(0.715 0.142049429701804 -0.1)
(0.72 0.136458377775419 -0.1)
(0.725 0.130977561007447 -0.1)
(0.73 0.125607105228765 -0.1)
(0.735 0.120347136270252 -0.1)
(0.74 0.115197779962784 -0.1)
(0.745 0.110159162137241 -0.1)
(0.75 0.105231408624498 -0.1)
(0.755 0.100414645255435 -0.1)
(0.76 0.0957089978609283 -0.1)
(0.765 0.0911145922718564 -0.1)
(0.77 0.0866315543190961 -0.1)
(0.775 0.0822600098335264 -0.1)
(0.78 0.0780000846460236 -0.1)
(0.785 0.0738519045874666 -0.1)
(0.79 0.0698155954887323 -0.1)
(0.795 0.065891283180699 -0.1)
(0.8 0.0620790934942436 -0.1)
(0.805 0.0583791522602445 -0.1)
(0.81 0.0547915853095795 -0.1)
(0.815 0.0513165184731258 -0.1)
(0.82 0.0479540775817618 -0.1)
(0.825 0.044704388466364 -0.1)
(0.83 0.0415675769578117 -0.1)
(0.835 0.0385437688869814 -0.1)
(0.84 0.0356330900847515 -0.1)
(0.845 0.0328356663819988 -0.1)
(0.85 0.0301516236096024 -0.1)
(0.855 0.0275810875984384 -0.1)
(0.86 0.0251241841793858 -0.1)
(0.865 0.0227810391833216 -0.1)
(0.87 0.020551778441124 -0.1)
(0.875 0.0184365277836701 -0.1)
(0.88 0.0164354130418385 -0.1)
(0.885 0.0145485600465056 -0.1)
(0.89 0.0127760946285508 -0.1)
(0.895 0.0111181426188502 -0.1)
(0.9 0.00957482984828257 -0.1)
(0.905 0.00814628214772479 -0.1)
(0.91 0.00683262534805575 -0.1)
(0.915 0.00563398528015166 -0.1)
(0.92 0.00455048777489175 -0.1)
(0.925 0.00358225866315216 -0.1)
(0.93 0.00272942377581192 -0.1)
(0.935 0.00199210894374819 -0.1)
(0.94 0.00137043999783872 -0.1)
(0.945 0.000864542768961212 -0.1)
(0.95 0.00047454308799336 -0.1)
(0.955 0.000200566785812896 -0.1)
(0.96 4.2739693297695e-05 -0.1)
(0.965714285714286 0 -0.1)
(0.975714285714286 0 -0.1)
(0.985714285714286 0 -0.1)
(0.995714285714286 0 -0.1)
(1.00571428571429 0 -0.1)
(1.01571428571429 0 -0.1)
(1.02571428571429 0 -0.1)
(1.03571428571429 0 -0.1)
(1.04571428571429 0 -0.1)
(1.05571428571429 0 -0.1)
(1.06571428571429 0 -0.1)
(1.07571428571429 0 -0.1)
(1.08571428571429 0 -0.1)
(1.09571428571429 0 -0.1)
(1.10571428571429 0 -0.1)
(1.11571428571429 0 -0.1)
(1.12571428571429 0 -0.1)
(1.13571428571429 0 -0.1)
(1.14571428571429 0 -0.1)
(1.15571428571429 0 -0.1)
(1.16571428571429 0 -0.1)
(1.17571428571429 0 -0.1)
(1.18571428571429 0 -0.1)
(1.19571428571429 0 -0.1)
(1.20571428571429 0 -0.1)
(1.21571428571429 0 -0.1)
(1.22571428571429 0 -0.1)
(1.23571428571429 0 -0.1)
(1.24571428571429 0 -0.1)
(1.25571428571429 0 -0.1)
(1.26571428571429 0 -0.1)
(1.27571428571429 0 -0.1)
(1.28571428571429 0 -0.1)
(1.29571428571429 0 -0.1)
(1.30571428571429 0 -0.1)
(1.31571428571429 0 -0.1)
(1.32571428571429 0 -0.1)
(1.33571428571429 0 -0.1)
(1.34571428571429 0 -0.1)
(1.35571428571429 0 -0.1)
(1.36571428571429 0 -0.1)
(1.37571428571429 0 -0.1)
(1.38571428571429 0 -0.1)
(1.39571428571429 0 -0.1)
(1.40571428571429 0 -0.1)
(1.41571428571429 0 -0.1)
(1.42571428571429 0 -0.1)
(1.43571428571429 0 -0.1)
(1.44571428571429 0 -0.1)
(1.45571428571429 0 -0.1)
(1.46571428571429 0 -0.1)
(1.47571428571429 0 -0.1)
(1.48571428571429 0 -0.1)
(1.49571428571429 0 -0.1)
(1.50571428571429 0 -0.1)
(1.51571428571429 0 -0.1)
(1.52571428571429 0 -0.1)
(1.53571428571429 0 -0.1)
(1.54571428571429 0 -0.1)
(1.55571428571429 0 -0.1)
(1.56571428571429 0 -0.1)
(1.57571428571429 0 -0.1)
(1.58571428571429 0 -0.1)
(1.59571428571429 0 -0.1)
(1.60571428571429 0 -0.1)
(1.61571428571429 0 -0.1)
(1.62571428571429 0 -0.1)
(1.63571428571429 0 -0.1)
(1.64571428571429 0 -0.1)
(1.65571428571429 0 -0.1)
(1.66571428571429 0 -0.1)
(1.67571428571429 0 -0.1)
(1.68571428571429 0 -0.1)
(1.69571428571429 0 -0.1)
(1.70571428571429 0 -0.1)
(1.71571428571429 0 -0.1)
(1.72571428571429 0 -0.1)
(1.73571428571429 0 -0.1)
(1.74571428571429 0 -0.1)
(1.75571428571429 0 -0.1)
(1.76571428571429 0 -0.1)
(1.77571428571429 0 -0.1)
(1.78571428571429 0 -0.1)
(1.79571428571429 0 -0.1)
(1.80571428571429 0 -0.1)
(1.81571428571429 0 -0.1)
(1.82571428571429 0 -0.1)
(1.83571428571429 0 -0.1)
(1.84571428571429 0 -0.1)
(1.85571428571429 0 -0.1)
(1.86571428571429 0 -0.1)
(1.87571428571429 0 -0.1)
(1.88571428571429 0 -0.1)
(1.89571428571429 0 -0.1)
(1.90571428571429 0 -0.1)
(1.91571428571429 0 -0.1)
(1.92571428571429 0 -0.1)
(1.93571428571429 0 -0.1)
(1.94571428571429 0 -0.1)
(1.95571428571429 0 -0.1)
(1.96571428571429 0 -0.1)
(1.97571428571429 0 -0.1)
(1.98571428571429 0 -0.1)
(1.99571428571429 0 -0.1)
(2.00571428571429 0 -0.1)
(2.01571428571429 0 -0.1)
(2.02571428571429 0 -0.1)
(2.03571428571429 0 -0.1)
(2.04571428571429 0 -0.1)
(2.05571428571429 0 -0.1)
(2.06571428571429 0 -0.1)
(2.07571428571429 0 -0.1)
(2.08571428571429 0 -0.1)
(2.09571428571429 0 -0.1)
(2.10571428571429 0 -0.1)
(2.11571428571429 0 -0.1)
(2.12571428571429 0 -0.1)
(2.13571428571429 0 -0.1)
(2.14571428571429 0 -0.1)
(2.15571428571429 0 -0.1)
(2.16571428571429 0 -0.1)
(2.17571428571429 0 -0.1)
(2.18571428571429 0 -0.1)
(2.19571428571429 0 -0.1)
(2.20571428571429 0 -0.1)
(2.21571428571429 0 -0.1)
(2.22571428571429 0 -0.1)
(2.23571428571429 0 -0.1)
(2.24571428571429 0 -0.1)
(2.25571428571429 0 -0.1)
(2.26571428571429 0 -0.1)
(2.27571428571429 0 -0.1)
(2.28571428571429 0 -0.1)
(2.29571428571429 0 -0.1)
(2.30571428571429 0 -0.1)
(2.31571428571429 0 -0.1)
(2.32571428571429 0 -0.1)
(2.33571428571429 0 -0.1)
(2.34571428571429 0 -0.1)
(2.35571428571429 0 -0.1)
(2.36571428571429 0 -0.1)
(2.37571428571429 0 -0.1)
(2.38571428571429 0 -0.1)
(2.39571428571429 0 -0.1)
(2.40571428571429 0 -0.1)
(2.41571428571429 0 -0.1)
(2.42571428571429 0 -0.1)
(2.43571428571429 0 -0.1)
(2.44571428571429 0 -0.1)
(2.45571428571429 0 -0.1)
(2.46571428571429 0 -0.1)
(2.47571428571429 0 -0.1)
(2.48571428571429 0 -0.1)
(2.49571428571429 0 -0.1)
(2.50571428571429 0 -0.1)
(2.51571428571429 0 -0.1)
(2.52571428571429 0 -0.1)
(2.53571428571429 0 -0.1)
(2.54571428571429 0 -0.1)
(2.55571428571429 0 -0.1)
(2.56571428571429 0 -0.1)
(2.57571428571429 0 -0.1)
(2.58571428571429 0 -0.1)
(2.59571428571429 0 -0.1)
(2.60571428571429 0 -0.1)
(2.61571428571429 0 -0.1)
(2.62571428571429 0 -0.1)
(2.63571428571429 0 -0.1)
(2.64571428571429 0 -0.1)
(2.65571428571429 0 -0.1)
(2.66571428571429 0 -0.1)
(2.67571428571429 0 -0.1)
(2.68571428571429 0 -0.1)
(2.69571428571429 0 -0.1)
(2.70571428571429 0 -0.1)
(2.71571428571429 0 -0.1)
(2.72571428571429 0 -0.1)
(2.73571428571429 0 -0.1)
(2.74571428571429 0 -0.1)
(2.75571428571429 0 -0.1)
(2.76571428571429 0 -0.1)
(2.77571428571429 0 -0.1)
(2.78571428571429 0 -0.1)
(2.79571428571429 0 -0.1)
(2.80571428571429 0 -0.1)
(2.81571428571429 0 -0.1)
(2.82571428571429 0 -0.1)
(2.83571428571429 0 -0.1)
(2.84571428571429 0 -0.1)
(2.85571428571429 0 -0.1)
(2.86571428571429 0 -0.1)
(2.87571428571429 0 -0.1)
(2.88571428571429 0 -0.1)
(2.89571428571429 0 -0.1)
(2.90571428571429 0 -0.1)
(2.91571428571429 0 -0.1)
(2.92571428571429 0 -0.1)
(2.93571428571429 0 -0.1)
(2.94571428571429 0 -0.1)
(2.95571428571429 0 -0.1)
(2.96571428571429 0 -0.1)
(2.97571428571429 0 -0.1)
(2.98571428571429 0 -0.1)
(2.99571428571429 0 -0.1)
(3.00571428571429 0 -0.1)
(3.01571428571429 0 -0.1)
(3.02571428571429 0 -0.1)
(3.03571428571429 0 -0.1)
(3.04571428571429 0 -0.1)
(3.05571428571429 0 -0.1)
(3.06571428571429 0 -0.1)
(3.07571428571429 0 -0.1)
(3.08571428571429 0 -0.1)
(3.09571428571429 0 -0.1)
(3.10571428571429 0 -0.1)
(3.11571428571429 0 -0.1)
(3.12571428571429 0 -0.1)
(3.13571428571429 0 -0.1)
(3.14571428571429 0 -0.1)
(3.15571428571429 0 -0.1)
(3.16571428571429 0 -0.1)
(3.17571428571429 0 -0.1)
(3.18571428571429 0 -0.1)
(3.19571428571429 0 -0.1)
(3.20571428571429 0 -0.1)
(3.21571428571429 0 -0.1)
(3.22571428571429 0 -0.1)
(3.23571428571429 0 -0.1)
(3.24571428571429 0 -0.1)
(3.25571428571429 0 -0.1)
(3.26571428571429 0 -0.1)
(3.27571428571429 0 -0.1)
(3.28571428571429 0 -0.1)
(3.29571428571429 0 -0.1)
(3.30571428571429 0 -0.1)
(3.31571428571429 0 -0.1)
(3.32571428571429 0 -0.1)
(3.33571428571429 0 -0.1)
(3.34571428571429 0 -0.1)
(3.35571428571429 0 -0.1)
(3.36571428571429 0 -0.1)
(3.37571428571429 0 -0.1)
(3.38571428571429 0 -0.1)
(3.39571428571429 0 -0.1)
(3.40571428571429 0 -0.1)
(3.41571428571429 0 -0.1)
(3.42571428571429 0 -0.1)
(3.43571428571429 0 -0.1)
(3.44571428571429 0 -0.1)
(3.45571428571429 0 -0.1)
(3.46571428571429 0 -0.1)
(3.47571428571429 0 -0.1)
(3.48571428571429 0 -0.1)
(3.49571428571429 0 -0.1)
(3.50571428571429 0 -0.1)
(3.51571428571429 0 -0.1)
(3.52571428571429 0 -0.1)
(3.53571428571429 0 -0.1)
(3.54571428571429 0 -0.1)
(3.55571428571429 0 -0.1)
(3.56571428571429 0 -0.1)
(3.57571428571429 0 -0.1)
(3.58571428571429 0 -0.1)
(3.59571428571429 0 -0.1)
(3.60571428571429 0 -0.1)
(3.61571428571429 0 -0.1)
(3.62571428571429 0 -0.1)
(3.63571428571429 0 -0.1)
(3.64571428571429 0 -0.1)
(3.65571428571429 0 -0.1)
(3.66571428571429 0 -0.1)
(3.67571428571429 0 -0.1)
(3.68571428571429 0 -0.1)
(3.69571428571429 0 -0.1)
(3.70571428571429 0 -0.1)
(3.71571428571429 0 -0.1)
(3.72571428571429 0 -0.1)
(3.73571428571429 0 -0.1)
(3.74571428571429 0 -0.1)
(3.75571428571429 0 -0.1)
(3.76571428571429 0 -0.1)
(3.77571428571429 0 -0.1)
(3.78571428571429 0 -0.1)
(3.79571428571429 0 -0.1)
(3.80571428571429 0 -0.1)
(3.81571428571429 0 -0.1)
(3.82571428571429 0 -0.1)
(3.83571428571429 0 -0.1)
(3.84571428571429 0 -0.1)
(3.85571428571429 0 -0.1)
(3.86571428571429 0 -0.1)
(3.87571428571429 0 -0.1)
(3.88571428571429 0 -0.1)
(3.89571428571429 0 -0.1)
(3.90571428571429 0 -0.1)
(3.91571428571429 0 -0.1)
(3.92571428571429 0 -0.1)
(3.93571428571429 0 -0.1)
(3.94571428571429 0 -0.1)
(3.95571428571429 0 -0.1)
(3.96571428571429 0 -0.1)
(3.97571428571429 0 -0.1)
(3.98571428571429 0 -0.1)
(3.99571428571429 0 -0.1)
(4.00571428571429 0 -0.1)
(4.01571428571429 0 -0.1)
(4.02571428571429 0 -0.1)
(4.03571428571429 0 -0.1)
(4.04571428571429 0 -0.1)
(4.05571428571429 0 -0.1)
(4.06571428571429 0 -0.1)
(4.07571428571429 0 -0.1)
(4.08571428571429 0 -0.1)
(4.09571428571429 0 -0.1)
(4.10571428571429 0 -0.1)
(4.11571428571429 0 -0.1)
(4.12571428571429 0 -0.1)
(4.13571428571429 0 -0.1)
(4.14571428571429 0 -0.1)
(4.15571428571429 0 -0.1)
(4.16571428571429 0 -0.1)
(4.17571428571429 0 -0.1)
(4.18571428571429 0 -0.1)
(4.19571428571429 0 -0.1)
(4.20571428571429 0 -0.1)
(4.21571428571429 0 -0.1)
(4.22571428571429 0 -0.1)
(4.23571428571429 0 -0.1)
(4.24571428571429 0 -0.1)
(4.25571428571429 0 -0.1)
(4.26571428571429 0 -0.1)
(4.27571428571429 0 -0.1)
(4.28571428571429 0 -0.1)
(4.29571428571429 0 -0.1)
(4.30571428571429 0 -0.1)
(4.31571428571429 0 -0.1)
(4.32571428571429 0 -0.1)
(4.33571428571429 0 -0.1)
(4.34571428571429 0 -0.1)
(4.35571428571429 0 -0.1)
(4.36571428571429 0 -0.1)
(4.37571428571429 0 -0.1)
(4.38571428571429 0 -0.1)
(4.39571428571429 0 -0.1)
(4.40571428571429 0 -0.1)
(4.41571428571429 0 -0.1)
(4.42571428571429 0 -0.1)
(4.43571428571429 0 -0.1)
(4.44571428571429 0 -0.1)
(4.45571428571429 0 -0.1)
(4.46571428571429 0 -0.1)
(4.47571428571429 0 -0.1)
(4.48571428571429 0 -0.1)
(4.49571428571429 0 -0.1)
(4.50571428571429 0 -0.1)
(4.51571428571429 0 -0.1)
(4.52571428571429 0 -0.1)
(4.53571428571429 0 -0.1)
(4.54571428571429 0 -0.1)
(4.55571428571429 0 -0.1)
(4.56571428571429 0 -0.1)
(4.57571428571429 0 -0.1)
(4.58571428571429 0 -0.1)
(4.59571428571429 0 -0.1)
(4.60571428571429 0 -0.1)
(4.61571428571429 0 -0.1)
(4.62571428571429 0 -0.1)
(4.63571428571429 0 -0.1)
(4.64571428571429 0 -0.1)
(4.65571428571429 0 -0.1)
(4.66571428571429 0 -0.1)
(4.67571428571429 0 -0.1)
(4.68571428571429 0 -0.1)
(4.69571428571429 0 -0.1)
(4.70571428571429 0 -0.1)
(4.71571428571429 0 -0.1)
(4.72571428571429 0 -0.1)
(4.73571428571429 0 -0.1)
(4.74571428571429 0 -0.1)
(4.75571428571429 0 -0.1)
(4.76571428571429 0 -0.1)
(4.77571428571429 0 -0.1)
(4.78571428571429 0 -0.1)
(4.79571428571429 0 -0.1)
(4.80571428571429 0 -0.1)
(4.81571428571429 0 -0.1)
(4.82571428571429 0 -0.1)
(4.83571428571429 0 -0.1)
(4.84571428571429 0 -0.1)
(4.85571428571429 0 -0.1)
(4.86571428571429 0 -0.1)
(4.87571428571429 0 -0.1)
(4.88571428571429 0 -0.1)
(4.89571428571429 0 -0.1)
(4.90571428571429 0 -0.1)
(4.91571428571429 0 -0.1)
(4.92571428571429 0 -0.1)
(4.93571428571429 0 -0.1)
(4.94571428571429 0 -0.1)
(4.95571428571429 0 -0.1)
(4.96571428571429 0 -0.1)
(4.97571428571429 0 -0.1)
(4.98571428571429 0 -0.1)
(4.99571428571429 0 -0.1)
(5.00571428571429 0 -0.1)
(5.01571428571429 0 -0.1)
(5.02571428571429 0 -0.1)
(5.03571428571429 0 -0.1)
(5.04571428571429 0 -0.1)
(5.05571428571429 0 -0.1)
(5.06571428571429 0 -0.1)
(5.07571428571429 0 -0.1)
(5.08571428571429 0 -0.1)
(5.09571428571429 0 -0.1)
(5.10571428571429 0 -0.1)
(5.11571428571429 0 -0.1)
(5.12571428571429 0 -0.1)
(5.13571428571429 0 -0.1)
(5.14571428571429 0 -0.1)
(5.15571428571429 0 -0.1)
(5.16571428571429 0 -0.1)
(5.17571428571429 0 -0.1)
(5.18571428571429 0 -0.1)
(5.19571428571429 0 -0.1)
(5.20571428571429 0 -0.1)
(5.21571428571429 0 -0.1)
(5.22571428571429 0 -0.1)
(5.23571428571429 0 -0.1)
(5.24571428571429 0 -0.1)
(5.25571428571429 0 -0.1)
(5.26571428571429 0 -0.1)
(5.27571428571429 0 -0.1)
(5.28571428571429 0 -0.1)
(5.29571428571429 0 -0.1)
(5.30571428571429 0 -0.1)
(5.31571428571429 0 -0.1)
(5.32571428571429 0 -0.1)
(5.33571428571429 0 -0.1)
(5.34571428571429 0 -0.1)
(5.35571428571429 0 -0.1)
(5.36571428571429 0 -0.1)
(5.37571428571429 0 -0.1)
(5.38571428571429 0 -0.1)
(5.39571428571429 0 -0.1)
(5.40571428571429 0 -0.1)
(5.41571428571429 0 -0.1)
(5.42571428571429 0 -0.1)
(5.43571428571429 0 -0.1)
(5.44571428571429 0 -0.1)
(5.45571428571429 0 -0.1)
(5.46571428571429 0 -0.1)
(5.47571428571429 0 -0.1)
(5.48571428571429 0 -0.1)
(5.49571428571429 0 -0.1)
(5.50571428571429 0 -0.1)
(5.51571428571429 0 -0.1)
(5.52571428571429 0 -0.1)
(5.53571428571429 0 -0.1)
(5.54571428571429 0 -0.1)
(5.55571428571429 0 -0.1)
(5.56571428571429 0 -0.1)
(5.57571428571429 0 -0.1)
(5.58571428571429 0 -0.1)
(5.59571428571429 0 -0.1)
(5.60571428571429 0 -0.1)
(5.61571428571429 0 -0.1)
(5.62571428571429 0 -0.1)
(5.63571428571429 0 -0.1)
(5.64571428571429 0 -0.1)
(5.65571428571429 0 -0.1)
(5.66571428571429 0 -0.1)
(5.67571428571429 0 -0.1)
(5.68571428571429 0 -0.1)
(5.69571428571429 0 -0.1)
(5.70571428571429 0 -0.1)
(5.71571428571429 0 -0.1)
(5.72571428571429 0 -0.1)
(5.73571428571429 0 -0.1)
(5.74571428571429 0 -0.1)
(5.75571428571429 0 -0.1)
(5.76571428571429 0 -0.1)
(5.77571428571429 0 -0.1)
(5.78571428571429 0 -0.1)
(5.79571428571429 0 -0.1)
(5.80571428571429 0 -0.1)
(5.81571428571429 0 -0.1)
(5.82571428571429 0 -0.1)
(5.83571428571429 0 -0.1)
(5.84571428571429 0 -0.1)
(5.85571428571429 0 -0.1)
(5.86571428571429 0 -0.1)
(5.87571428571429 0 -0.1)
(5.88571428571429 0 -0.1)
(5.89571428571429 0 -0.1)
(5.90571428571429 0 -0.1)
(5.91571428571429 0 -0.1)
(5.92571428571429 0 -0.1)
(5.93571428571429 0 -0.1)
(5.94571428571429 0 -0.1)
(5.95571428571429 0 -0.1)
(5.96571428571429 0 -0.1)
(5.97571428571429 0 -0.1)
(5.98571428571429 0 -0.1)
(5.99571428571429 0 -0.1)
(6.00571428571429 0 -0.1)
(6.01571428571429 0 -0.1)
(6.02571428571429 0 -0.1)
(6.03571428571429 0 -0.1)
(6.04571428571429 0 -0.1)
(6.05571428571429 0 -0.1)
(6.06571428571429 0 -0.1)
(6.07571428571429 0 -0.1)
(6.08571428571429 0 -0.1)
(6.09571428571429 0 -0.1)
(6.10571428571429 0 -0.1)
(6.11571428571429 0 -0.1)
(6.12571428571429 0 -0.1)
(6.13571428571429 0 -0.1)
(6.14571428571429 0 -0.1)
(6.15571428571429 0 -0.1)
(6.16571428571429 0 -0.1)
(6.17571428571429 0 -0.1)
(6.18571428571429 0 -0.1)
(6.19571428571429 0 -0.1)
(6.20571428571429 0 -0.1)
(6.21571428571429 0 -0.1)
(6.22571428571429 0 -0.1)
(6.23571428571429 0 -0.1)
(6.24571428571429 0 -0.1)
(6.25571428571429 0 -0.1)
(6.26571428571429 0 -0.1)
(6.27571428571429 0 -0.1)
(6.28571428571429 0 -0.1)
(6.29571428571429 0 -0.1)
(6.30571428571429 0 -0.1)
(6.31571428571429 0 -0.1)
(6.32571428571429 0 -0.1)
(6.33571428571429 0 -0.1)
(6.34571428571429 0 -0.1)
(6.35571428571429 0 -0.1)
(6.36571428571429 0 -0.1)
(6.37571428571429 0 -0.1)
(6.38571428571429 0 -0.1)
(6.39571428571429 0 -0.1)
(6.40571428571429 0 -0.1)
(6.41571428571429 0 -0.1)
(6.42571428571429 0 -0.1)
(6.43571428571429 0 -0.1)
(6.44571428571429 0 -0.1)
(6.45571428571429 0 -0.1)
(6.46571428571429 0 -0.1)
(6.47571428571429 0 -0.1)
(6.48571428571429 0 -0.1)
(6.49571428571429 0 -0.1)
(6.50571428571429 0 -0.1)
(6.51571428571429 0 -0.1)
(6.52571428571429 0 -0.1)
(6.53571428571429 0 -0.1)
(6.54571428571429 0 -0.1)
(6.55571428571429 0 -0.1)
(6.56571428571429 0 -0.1)
(6.57571428571429 0 -0.1)
(6.58571428571429 0 -0.1)
(6.59571428571429 0 -0.1)
(6.60571428571429 0 -0.1)
(6.61571428571429 0 -0.1)
(6.62571428571429 0 -0.1)
(6.63571428571429 0 -0.1)
(6.64571428571429 0 -0.1)
(6.65571428571429 0 -0.1)
(6.66571428571429 0 -0.1)
(6.67571428571429 0 -0.1)
(6.68571428571429 0 -0.1)
(6.69571428571429 0 -0.1)
(6.70571428571429 0 -0.1)
(6.71571428571429 0 -0.1)
(6.72571428571429 0 -0.1)
(6.73571428571429 0 -0.1)
(6.74571428571429 0 -0.1)
(6.75571428571429 0 -0.1)
(6.76571428571429 0 -0.1)
(6.77571428571429 0 -0.1)
(6.78571428571429 0 -0.1)
(6.79571428571429 0 -0.1)
(6.80571428571429 0 -0.1)
(6.81571428571429 0 -0.1)
(6.82571428571429 0 -0.1)
(6.83571428571429 0 -0.1)
(6.84571428571429 0 -0.1)
(6.85571428571429 0 -0.1)
(6.86571428571429 0 -0.1)
(6.87571428571429 0 -0.1)
(6.88571428571429 0 -0.1)
(6.89571428571429 0 -0.1)
(6.90571428571429 0 -0.1)
(6.91571428571429 0 -0.1)
(6.92571428571429 0 -0.1)
(6.93571428571429 0 -0.1)
(6.94571428571429 0 -0.1)
(6.95571428571429 0 -0.1)
(6.96571428571429 0 -0.1)
(6.97571428571429 0 -0.1)
(6.98571428571429 0 -0.1)
(6.99571428571429 0 -0.1)
(7.00571428571429 0 -0.1)
(7.01571428571429 0 -0.1)
(7.02571428571429 0 -0.1)
(7.03571428571429 0 -0.1)
(7.04571428571429 0 -0.1)
(7.05571428571429 0 -0.1)
(7.06571428571429 0 -0.1)
(7.07571428571429 0 -0.1)
(7.08571428571429 0 -0.1)
(7.09571428571429 0 -0.1)
(7.10571428571429 0 -0.1)
(7.11571428571429 0 -0.1)
(7.12571428571429 0 -0.1)
(7.13571428571429 0 -0.1)
(7.14571428571429 0 -0.1)
(7.15571428571429 0 -0.1)
(7.16571428571429 0 -0.1)
(7.17571428571429 0 -0.1)
(7.18571428571429 0 -0.1)
(7.19571428571429 0 -0.1)
(7.20571428571429 0 -0.1)
(7.21571428571429 0 -0.1)
(7.22571428571429 0 -0.1)
(7.23571428571429 0 -0.1)
(7.24571428571429 0 -0.1)
(7.25571428571429 0 -0.1)
(7.26571428571429 0 -0.1)
(7.27571428571429 0 -0.1)
(7.28571428571429 0 -0.1)
(7.29571428571429 0 -0.1)
(7.30571428571429 0 -0.1)
(7.31571428571429 0 -0.1)
(7.32571428571429 0 -0.1)
(7.33571428571429 0 -0.1)
(7.34571428571429 0 -0.1)
(7.35571428571429 0 -0.1)
(7.36571428571429 0 -0.1)
(7.37571428571429 0 -0.1)
(7.38571428571429 0 -0.1)
(7.39571428571429 0 -0.1)
(7.40571428571429 0 -0.1)
(7.41571428571429 0 -0.1)
(7.42571428571429 0 -0.1)
(7.43571428571429 0 -0.1)
(7.44571428571429 0 -0.1)
(7.45571428571429 0 -0.1)
(7.46571428571429 0 -0.1)
(7.47571428571429 0 -0.1)
(7.48571428571429 0 -0.1)
(7.49571428571429 0 -0.1)
(7.50571428571429 0 -0.1)
(7.51571428571429 0 -0.1)
(7.52571428571429 0 -0.1)
(7.53571428571429 0 -0.1)
(7.54571428571429 0 -0.1)
(7.55571428571429 0 -0.1)
(7.56571428571429 0 -0.1)
(7.57571428571429 0 -0.1)
(7.58571428571429 0 -0.1)
(7.59571428571429 0 -0.1)
(7.60571428571429  0 -0.1)
(7.61571428571429 0 -0.1)
(7.62571428571429 0 -0.1)
(7.63571428571429 0 -0.1)
(7.64571428571429 0 -0.1)
(7.65571428571429 0 -0.1)
(7.66571428571429 0 -0.1)
(7.67571428571429 0 -0.1)
(7.68571428571429 0 -0.1)
(7.69571428571429 0 -0.1)
(7.70571428571429 0 -0.1)
(7.71571428571429 0 -0.1)
(7.72571428571429 0 -0.1)
(7.73571428571429 0 -0.1)
(7.74571428571429 0 -0.1)
(7.75571428571429 0 -0.1)
(7.76571428571429 0 -0.1)
(7.77571428571429 0 -0.1)
(7.78571428571429 0 -0.1)
(7.79571428571429 0 -0.1)
(7.80571428571429 0 -0.1)
(7.81571428571429 0 -0.1)
(7.82571428571429 0 -0.1)
(7.83571428571429 0 -0.1)
(7.84571428571429 0 -0.1)
(7.85571428571429 0 -0.1)
(7.86571428571429 0 -0.1)
(7.87571428571429 0 -0.1)
(7.88571428571429 0 -0.1)
(7.89571428571429 0 -0.1)
(7.90571428571429 0 -0.1)
(7.91571428571429 0 -0.1)
(7.92571428571429 0 -0.1)
(7.93571428571429 0 -0.1)
(7.94571428571429 0 -0.1)
(7.95571428571429 0 -0.1)
(7.96571428571429 0 -0.1)
(7.97571428571429 0 -0.1)
(7.98571428571429 0 -0.1)
(7.99571428571429 0 -0.1)
(8.00571428571429 0 -0.1)
(8.01571428571429 0 -0.1)
(8.02571428571429 0 -0.1)
(8.03571428571429 0 -0.1)
(8.04571428571429 0 -0.1)
(8.05571428571429 0 -0.1)
(8.06571428571429 0 -0.1)
(8.07571428571429 0 -0.1)
(8.08571428571429 0 -0.1)
(8.09571428571429 0 -0.1)
(8.10571428571429 0 -0.1)
(8.11571428571429 0 -0.1)
(8.12571428571429 0 -0.1)
(8.13571428571429 0 -0.1)
(8.14571428571429 0 -0.1)
(8.15571428571429 0 -0.1)
(8.16571428571429 0 -0.1)
(8.17571428571429 0 -0.1)
(8.18571428571429 0 -0.1)
(8.19571428571429 0 -0.1)
(8.20571428571429 0 -0.1)
(8.21571428571429 0 -0.1)
(8.22571428571429 0 -0.1)
(8.23571428571429 0 -0.1)
(8.24571428571429 0 -0.1)
(8.25571428571429 0 -0.1)
(8.26571428571429 0 -0.1)
(8.27571428571429 0 -0.1)
(8.28571428571429 0 -0.1)
(8.29571428571429 0 -0.1)
(8.30571428571429 0 -0.1)
(8.31571428571429 0 -0.1)
(8.32571428571429 0 -0.1)
(8.33571428571429 0 -0.1)
(8.34571428571429 0 -0.1)
(8.35571428571429 0 -0.1)
(8.36571428571429 0 -0.1)
(8.37571428571429 0 -0.1)
(8.38571428571429 0 -0.1)
(8.39571428571429 0 -0.1)
(8.40571428571429 0 -0.1)
(8.41571428571429 0 -0.1)
(8.42571428571429 0 -0.1)
(8.43571428571429 0 -0.1)
(8.44571428571429 0 -0.1)
(8.45571428571429 0 -0.1)
(8.46571428571429 0 -0.1)
(8.47571428571429 0 -0.1)
(8.48571428571429 0 -0.1)
(8.49571428571429 0 -0.1)
(8.50571428571429 0 -0.1)
(8.51571428571429 0 -0.1)
(8.52571428571429 0 -0.1)
(8.53571428571429 0 -0.1)
(8.54571428571429 0 -0.1)
(8.55571428571429 0 -0.1)
(8.56571428571429 0 -0.1)
(8.57571428571429 0 -0.1)
(8.58571428571429 0 -0.1)
(8.59571428571429 0 -0.1)
(8.60571428571429 0 -0.1)
(8.61571428571429 0 -0.1)
(8.62571428571429 0 -0.1)
(8.63571428571429 0 -0.1)
(8.64571428571429 0 -0.1)
(8.65571428571429 0 -0.1)
(8.66571428571429 0 -0.1)
(8.67571428571429 0 -0.1)
(8.68571428571429 0 -0.1)
(8.69571428571429 0 -0.1)
(8.70571428571429 0 -0.1)
(8.71571428571429 0 -0.1)
(8.72571428571429 0 -0.1)
(8.73571428571429 0 -0.1)
(8.74571428571429 0 -0.1)
(8.75571428571429 0 -0.1)
(8.76571428571429 0 -0.1)
(8.77571428571429 0 -0.1)
(8.78571428571429 0 -0.1)
(8.79571428571429 0 -0.1)
(8.80571428571429 0 -0.1)
(8.81571428571429 0 -0.1)
(8.82571428571429 0 -0.1)
(8.83571428571429 0 -0.1)
(8.84571428571429 0 -0.1)
(8.85571428571429 0 -0.1)
(8.86571428571429 0 -0.1)
(8.87571428571429 0 -0.1)
(8.88571428571429 0 -0.1)
(8.89571428571429 0 -0.1)
(8.90571428571429 0 -0.1)
(8.91571428571429 0 -0.1)
(8.92571428571429 0 -0.1)
(8.93571428571429 0 -0.1)
(8.94571428571429 0 -0.1)
(8.95571428571429 0 -0.1)
(8.96571428571429 0 -0.1)
(8.97571428571429 0 -0.1)
(8.98571428571429 0 -0.1)
(8.99571428571429 0 -0.1)
(9.00571428571429 0 -0.1)
(9.01571428571429 0 -0.1)
(9.02571428571429 0 -0.1)
(9.03571428571429 0 -0.1)
(9.04571428571429 0 -0.1)
(9.05571428571429 0 -0.1)
(9.06571428571429 0 -0.1)
(9.07571428571429 0 -0.1)
(9.08571428571429 0 -0.1)
(9.09571428571429 0 -0.1)
(9.10571428571429 0 -0.1)
(9.11142857142857 4.27396932978853e-05 -0.1)
(9.11642857142857 0.000200566785812769 -0.1)
(9.12142857142857 0.000474543087993487 -0.1)
(9.12642857142857 0.000864542768961101 -0.1)
(9.13142857142857 0.00137043999783886 -0.1)
(9.13642857142857 0.0019921089437483 -0.1)
(9.14142857142857 0.00272942377581226 -0.1)
(9.14642857142857 0.00358225866315225 -0.1)
(9.15142857142857 0.00455048777489158 -0.1)
(9.15642857142857 0.0056339852801517 -0.1)
(9.16142857142857 0.00683262534805581 -0.1)
(9.16642857142857 0.0081462821477249 -0.1)
(9.17142857142857 0.00957482984828263 -0.1)
(9.17642857142857 0.0111181426188502 -0.1)
(9.18142857142857 0.0127760946285508 -0.1)
(9.18642857142857 0.0145485600465056 -0.1)
(9.19142857142857 0.0164354130418385 -0.1)
(9.19642857142857 0.0184365277836701 -0.1)
(9.20142857142857 0.020551778441124 -0.1)
(9.20642857142857 0.0227810391833216 -0.1)
(9.21142857142857 0.0251241841793858 -0.1)
(9.21642857142857 0.0275810875984384 -0.1)
(9.22142857142857 0.0301516236096021 -0.1)
(9.22642857142857 0.0328356663819988 -0.1)
(9.23142857142857 0.0356330900847517 -0.1)
(9.23642857142857 0.0385437688869816 -0.1)
(9.24142857142857 0.0415675769578115 -0.1)
(9.24642857142857 0.0447043884663645 -0.1)
(9.25142857142857 0.047954077581762 -0.1)
(9.25642857142857 0.0513165184731262 -0.1)
(9.26142857142857 0.0547915853095796 -0.1)
(9.26642857142857 0.0583791522602451 -0.1)
(9.27142857142857 0.0620790934942439 -0.1)
(9.27642857142857 0.0658912831806991 -0.1)
(9.28142857142857 0.0698155954887321 -0.1)
(9.28642857142857 0.0738519045874666 -0.1)