/*--------------------------------*- C++ -*----------------------------------*\
  =========                 |
  \\      /  F ield         | OpenFOAM: The Open Source CFD Toolbox
   \\    /   O peration     | Website:  https://openfoam.org
    \\  /    A nd           | Version:  7
     \\/     M anipulation  |
\*---------------------------------------------------------------------------*/
FoamFile
{
    version     2.0;
    format      ascii;
    class       volScalarField;
    location    "constant";
    object      Cz;
}
// * * * * * * * * * * * * * * * * * * * * * * * * * * * * * * * * * * * * * //

dimensions      [0 1 0 0 0 0 0];

internalField   nonuniform List<scalar> 
11045
(
4.697944704e-05
4.697944705e-05
4.697944705e-05
4.697944704e-05
4.697944704e-05
4.697944705e-05
4.697944704e-05
4.697944704e-05
4.697944704e-05
4.697944704e-05
4.697944705e-05
4.697944704e-05
4.697944705e-05
4.697944705e-05
4.697944704e-05
4.697944704e-05
4.697944704e-05
4.697944705e-05
4.697944704e-05
4.697944705e-05
4.697944705e-05
4.697944705e-05
4.697944705e-05
4.697944704e-05
4.697944705e-05
4.697944705e-05
4.697944704e-05
4.697944705e-05
4.697944704e-05
4.697944704e-05
4.697944705e-05
4.697944705e-05
4.697944704e-05
4.697944705e-05
4.697944705e-05
4.697944705e-05
4.697944704e-05
4.697944704e-05
4.697944705e-05
4.697944704e-05
4.697944705e-05
4.697944704e-05
4.697944704e-05
4.697944704e-05
4.697944704e-05
4.697944705e-05
4.697944704e-05
0.00014006632
0.00014006632
0.00014006632
0.00014006632
0.00014006632
0.00014006632
0.00014006632
0.00014006632
0.00014006632
0.00014006632
0.00014006632
0.00014006632
0.00014006632
0.00014006632
0.00014006632
0.00014006632
0.00014006632
0.00014006632
0.00014006632
0.00014006632
0.00014006632
0.00014006632
0.00014006632
0.00014006632
0.00014006632
0.00014006632
0.00014006632
0.00014006632
0.00014006632
0.00014006632
0.00014006632
0.00014006632
0.00014006632
0.00014006632
0.00014006632
0.00014006632
0.00014006632
0.00014006632
0.00014006632
0.00014006632
0.00014006632
0.00014006632
0.00014006632
0.00014006632
0.00014006632
0.00014006632
0.00014006632
0.0002314253369
0.0002314253369
0.0002314253369
0.0002314253369
0.0002314253369
0.0002314253369
0.0002314253369
0.0002314253369
0.0002314253369
0.0002314253369
0.0002314253369
0.000231425337
0.0002314253369
0.000231425337
0.0002314253369
0.0002314253369
0.0002314253369
0.000231425337
0.0002314253369
0.0002314253369
0.0002314253369
0.000231425337
0.0002314253369
0.0002314253369
0.0002314253369
0.0002314253369
0.0002314253369
0.0002314253369
0.0002314253369
0.0002314253369
0.0002314253369
0.0002314253369
0.0002314253369
0.0002314253369
0.000231425337
0.0002314253369
0.0002314253369
0.0002314253369
0.0002314253369
0.0002314253369
0.000231425337
0.0002314253369
0.0002314253369
0.0002314253369
0.0002314253369
0.0002314253369
0.0002314253369
0.00032108857
0.00032108857
0.00032108857
0.00032108857
0.00032108857
0.00032108857
0.00032108857
0.00032108857
0.00032108857
0.00032108857
0.00032108857
0.00032108857
0.00032108857
0.00032108857
0.00032108857
0.00032108857
0.00032108857
0.00032108857
0.00032108857
0.00032108857
0.00032108857
0.00032108857
0.00032108857
0.00032108857
0.00032108857
0.00032108857
0.00032108857
0.00032108857
0.00032108857
0.00032108857
0.00032108857
0.00032108857
0.00032108857
0.00032108857
0.00032108857
0.00032108857
0.00032108857
0.00032108857
0.00032108857
0.00032108857
0.00032108857
0.00032108857
0.00032108857
0.00032108857
0.00032108857
0.00032108857
0.00032108857
0.0004090874958
0.0004090874958
0.0004090874958
0.0004090874958
0.0004090874958
0.0004090874958
0.0004090874958
0.0004090874958
0.0004090874958
0.0004090874958
0.0004090874958
0.0004090874958
0.0004090874958
0.0004090874958
0.0004090874958
0.0004090874958
0.0004090874958
0.0004090874958
0.0004090874958
0.0004090874958
0.0004090874958
0.0004090874958
0.0004090874958
0.0004090874958
0.0004090874958
0.0004090874958
0.0004090874958
0.0004090874958
0.0004090874958
0.0004090874958
0.0004090874958
0.0004090874958
0.0004090874958
0.0004090874958
0.0004090874958
0.0004090874958
0.0004090874958
0.0004090874958
0.0004090874958
0.0004090874958
0.0004090874958
0.0004090874958
0.0004090874958
0.0004090874958
0.0004090874958
0.0004090874958
0.0004090874958
0.0004954530068
0.0004954530069
0.0004954530069
0.0004954530069
0.0004954530068
0.0004954530068
0.0004954530069
0.0004954530068
0.0004954530069
0.0004954530069
0.0004954530068
0.0004954530069
0.0004954530069
0.0004954530069
0.0004954530069
0.0004954530069
0.0004954530069
0.0004954530069
0.0004954530068
0.0004954530069
0.0004954530069
0.0004954530068
0.0004954530068
0.0004954530069
0.0004954530068
0.0004954530068
0.0004954530069
0.0004954530069
0.0004954530069
0.0004954530068
0.0004954530069
0.0004954530069
0.0004954530069
0.0004954530069
0.0004954530068
0.0004954530069
0.0004954530069
0.0004954530068
0.0004954530069
0.0004954530068
0.0004954530068
0.0004954530069
0.0004954530069
0.0004954530069
0.0004954530069
0.0004954530069
0.0004954530069
0.0005802154222
0.0005802154222
0.0005802154222
0.0005802154222
0.0005802154222
0.0005802154222
0.0005802154222
0.0005802154222
0.0005802154222
0.0005802154222
0.0005802154222
0.0005802154222
0.0005802154222
0.0005802154222
0.0005802154222
0.0005802154222
0.0005802154222
0.0005802154222
0.0005802154222
0.0005802154222
0.0005802154222
0.0005802154222
0.0005802154222
0.0005802154222
0.0005802154222
0.0005802154222
0.0005802154222
0.0005802154222
0.0005802154222
0.0005802154222
0.0005802154222
0.0005802154222
0.0005802154222
0.0005802154222
0.0005802154222
0.0005802154222
0.0005802154222
0.0005802154222
0.0005802154222
0.0005802154222
0.0005802154222
0.0005802154222
0.0005802154222
0.0005802154222
0.0005802154222
0.0005802154222
0.0005802154222
0.0006634044981
0.0006634044981
0.0006634044981
0.0006634044981
0.0006634044981
0.0006634044981
0.0006634044981
0.0006634044981
0.0006634044981
0.0006634044981
0.0006634044981
0.0006634044981
0.0006634044981
0.0006634044981
0.0006634044981
0.0006634044981
0.0006634044981
0.0006634044981
0.0006634044981
0.0006634044981
0.0006634044981
0.0006634044981
0.0006634044981
0.0006634044981
0.0006634044981
0.0006634044981
0.0006634044981
0.0006634044981
0.0006634044981
0.0006634044981
0.0006634044981
0.0006634044981
0.0006634044981
0.0006634044981
0.0006634044981
0.0006634044981
0.0006634044981
0.0006634044981
0.0006634044981
0.0006634044981
0.0006634044981
0.0006634044981
0.0006634044981
0.0006634044981
0.0006634044981
0.0006634044981
0.0006634044981
0.0007450494385
0.0007450494385
0.0007450494385
0.0007450494385
0.0007450494385
0.0007450494385
0.0007450494385
0.0007450494385
0.0007450494385
0.0007450494385
0.0007450494385
0.0007450494385
0.0007450494385
0.0007450494385
0.0007450494385
0.0007450494385
0.0007450494385
0.0007450494385
0.0007450494385
0.0007450494385
0.0007450494385
0.0007450494385
0.0007450494385
0.0007450494385
0.0007450494385
0.0007450494385
0.0007450494385
0.0007450494385
0.0007450494385
0.0007450494385
0.0007450494385
0.0007450494385
0.0007450494385
0.0007450494385
0.0007450494385
0.0007450494385
0.0007450494385
0.0007450494385
0.0007450494385
0.0007450494385
0.0007450494385
0.0007450494385
0.0007450494385
0.0007450494385
0.0007450494385
0.0007450494385
0.0007450494385
0.0008251789053
0.0008251789053
0.0008251789053
0.0008251789053
0.0008251789053
0.0008251789053
0.0008251789053
0.0008251789053
0.0008251789053
0.0008251789053
0.0008251789053
0.0008251789053
0.0008251789053
0.0008251789053
0.0008251789053
0.0008251789053
0.0008251789053
0.0008251789053
0.0008251789053
0.0008251789053
0.0008251789053
0.0008251789053
0.0008251789053
0.0008251789053
0.0008251789053
0.0008251789053
0.0008251789053
0.0008251789053
0.0008251789053
0.0008251789053
0.0008251789053
0.0008251789053
0.0008251789053
0.0008251789053
0.0008251789053
0.0008251789053
0.0008251789053
0.0008251789053
0.0008251789053
0.0008251789053
0.0008251789053
0.0008251789053
0.0008251789053
0.0008251789053
0.0008251789053
0.0008251789053
0.0008251789053
0.0009038210284
0.0009038210283
0.0009038210284
0.0009038210284
0.0009038210283
0.0009038210284
0.0009038210284
0.0009038210283
0.0009038210284
0.0009038210283
0.0009038210284
0.0009038210283
0.0009038210283
0.0009038210283
0.0009038210283
0.0009038210283
0.0009038210283
0.0009038210283
0.0009038210283
0.0009038210284
0.0009038210284
0.0009038210284
0.0009038210284
0.0009038210283
0.0009038210283
0.0009038210283
0.0009038210284
0.0009038210283
0.0009038210283
0.0009038210283
0.0009038210283
0.0009038210283
0.0009038210283
0.0009038210283
0.0009038210284
0.0009038210284
0.0009038210284
0.0009038210284
0.0009038210284
0.0009038210283
0.0009038210284
0.0009038210284
0.0009038210283
0.0009038210284
0.0009038210283
0.0009038210283
0.0009038210283
0.0009810034151
0.0009810034151
0.0009810034151
0.0009810034151
0.0009810034151
0.0009810034151
0.0009810034151
0.0009810034151
0.0009810034151
0.0009810034151
0.0009810034151
0.0009810034151
0.0009810034151
0.0009810034151
0.0009810034151
0.0009810034151
0.0009810034151
0.0009810034151
0.0009810034151
0.0009810034151
0.0009810034151
0.0009810034151
0.0009810034151
0.0009810034151
0.0009810034151
0.0009810034151
0.0009810034151
0.0009810034151
0.0009810034151
0.0009810034151
0.0009810034151
0.0009810034151
0.0009810034151
0.0009810034151
0.0009810034151
0.0009810034151
0.0009810034151
0.0009810034151
0.0009810034151
0.0009810034151
0.0009810034151
0.0009810034151
0.0009810034151
0.0009810034151
0.0009810034151
0.0009810034151
0.0009810034151
0.001056753161
0.001056753162
0.001056753161
0.001056753162
0.001056753161
0.001056753162
0.001056753162
0.001056753161
0.001056753161
0.001056753162
0.001056753162
0.001056753161
0.001056753162
0.001056753162
0.001056753161
0.001056753162
0.001056753161
0.001056753162
0.001056753162
0.001056753161
0.001056753161
0.001056753161
0.001056753162
0.001056753162
0.001056753162
0.001056753162
0.001056753161
0.001056753162
0.001056753162
0.001056753162
0.001056753161
0.001056753161
0.001056753161
0.001056753161
0.001056753161
0.001056753161
0.001056753162
0.001056753161
0.001056753162
0.001056753161
0.001056753162
0.001056753162
0.001056753162
0.001056753162
0.001056753162
0.001056753162
0.001056753162
0.001131096859
0.00113109686
0.001131096859
0.001131096859
0.001131096859
0.00113109686
0.001131096859
0.00113109686
0.001131096859
0.001131096859
0.001131096859
0.00113109686
0.001131096859
0.001131096859
0.001131096859
0.00113109686
0.001131096859
0.00113109686
0.001131096859
0.001131096859
0.00113109686
0.001131096859
0.00113109686
0.001131096859
0.001131096859
0.001131096859
0.00113109686
0.00113109686
0.00113109686
0.00113109686
0.001131096859
0.001131096859
0.00113109686
0.001131096859
0.001131096859
0.00113109686
0.001131096859
0.00113109686
0.00113109686
0.00113109686
0.001131096859
0.00113109686
0.001131096859
0.001131096859
0.00113109686
0.00113109686
0.00113109686
0.001204060608
0.001204060608
0.001204060608
0.001204060607
0.001204060608
0.001204060607
0.001204060607
0.001204060608
0.001204060608
0.001204060608
0.001204060607
0.001204060608
0.001204060608
0.001204060608
0.001204060608
0.001204060607
0.001204060607
0.001204060607
0.001204060608
0.001204060608
0.001204060608
0.001204060608
0.001204060608
0.001204060608
0.001204060608
0.001204060608
0.001204060608
0.001204060608
0.001204060607
0.001204060607
0.001204060607
0.001204060608
0.001204060608
0.001204060607
0.001204060608
0.001204060608
0.001204060607
0.001204060608
0.001204060608
0.001204060608
0.001204060608
0.001204060608
0.001204060608
0.001204060608
0.001204060608
0.001204060608
0.001204060608
0.00127567002
0.00127567002
0.00127567002
0.00127567002
0.00127567002
0.00127567002
0.00127567002
0.00127567002
0.00127567002
0.00127567002
0.00127567002
0.00127567002
0.00127567002
0.00127567002
0.00127567002
0.00127567002
0.00127567002
0.00127567002
0.00127567002
0.00127567002
0.00127567002
0.00127567002
0.00127567002
0.00127567002
0.00127567002
0.00127567002
0.00127567002
0.00127567002
0.00127567002
0.00127567002
0.00127567002
0.00127567002
0.00127567002
0.00127567002
0.00127567002
0.00127567002
0.00127567002
0.00127567002
0.00127567002
0.00127567002
0.00127567002
0.00127567002
0.00127567002
0.00127567002
0.00127567002
0.00127567002
0.00127567002
0.001345950236
0.001345950236
0.001345950236
0.001345950236
0.001345950236
0.001345950236
0.001345950236
0.001345950236
0.001345950236
0.001345950236
0.001345950236
0.001345950236
0.001345950236
0.001345950236
0.001345950236
0.001345950236
0.001345950236
0.001345950236
0.001345950236
0.001345950236
0.001345950236
0.001345950236
0.001345950236
0.001345950236
0.001345950236
0.001345950236
0.001345950236
0.001345950236
0.001345950236
0.001345950236
0.001345950236
0.001345950236
0.001345950236
0.001345950236
0.001345950236
0.001345950236
0.001345950236
0.001345950236
0.001345950236
0.001345950236
0.001345950236
0.001345950236
0.001345950236
0.001345950236
0.001345950236
0.001345950236
0.001345950236
0.001414925928
0.001414925928
0.001414925928
0.001414925928
0.001414925928
0.001414925928
0.001414925928
0.001414925928
0.001414925928
0.001414925928
0.001414925928
0.001414925928
0.001414925928
0.001414925928
0.001414925928
0.001414925928
0.001414925928
0.001414925928
0.001414925928
0.001414925928
0.001414925928
0.001414925928
0.001414925928
0.001414925928
0.001414925928
0.001414925928
0.001414925928
0.001414925928
0.001414925928
0.001414925928
0.001414925928
0.001414925928
0.001414925928
0.001414925928
0.001414925928
0.001414925928
0.001414925928
0.001414925928
0.001414925928
0.001414925928
0.001414925928
0.001414925928
0.001414925928
0.001414925928
0.001414925928
0.001414925928
0.001414925928
0.00148262131
0.00148262131
0.001482621309
0.001482621309
0.001482621309
0.00148262131
0.00148262131
0.00148262131
0.00148262131
0.00148262131
0.00148262131
0.00148262131
0.001482621309
0.00148262131
0.001482621309
0.001482621309
0.00148262131
0.00148262131
0.00148262131
0.00148262131
0.001482621309
0.001482621309
0.001482621309
0.00148262131
0.001482621309
0.00148262131
0.00148262131
0.00148262131
0.001482621309
0.00148262131
0.00148262131
0.001482621309
0.00148262131
0.00148262131
0.00148262131
0.00148262131
0.00148262131
0.00148262131
0.001482621309
0.001482621309
0.00148262131
0.00148262131
0.00148262131
0.001482621309
0.001482621309
0.001482621309
0.001482621309
0.001549060145
0.001549060145
0.001549060145
0.001549060145
0.001549060145
0.001549060145
0.001549060145
0.001549060145
0.001549060145
0.001549060145
0.001549060145
0.001549060145
0.001549060145
0.001549060145
0.001549060145
0.001549060146
0.001549060145
0.001549060146
0.001549060146
0.001549060145
0.001549060146
0.001549060145
0.001549060145
0.001549060145
0.001549060146
0.001549060146
0.001549060145
0.001549060145
0.001549060145
0.001549060145
0.001549060145
0.001549060145
0.001549060146
0.001549060145
0.001549060145
0.001549060145
0.001549060145
0.001549060145
0.001549060145
0.001549060146
0.001549060145
0.001549060146
0.001549060146
0.001549060146
0.001549060145
0.001549060145
0.001549060145
0.00161426576
0.00161426576
0.00161426576
0.00161426576
0.00161426576
0.00161426576
0.00161426576
0.00161426576
0.00161426576
0.00161426576
0.00161426576
0.00161426576
0.00161426576
0.00161426576
0.00161426576
0.00161426576
0.00161426576
0.00161426576
0.00161426576
0.00161426576
0.00161426576
0.00161426576
0.00161426576
0.00161426576
0.00161426576
0.00161426576
0.00161426576
0.00161426576
0.00161426576
0.00161426576
0.00161426576
0.00161426576
0.00161426576
0.00161426576
0.00161426576
0.00161426576
0.00161426576
0.00161426576
0.00161426576
0.00161426576
0.00161426576
0.00161426576
0.00161426576
0.00161426576
0.00161426576
0.00161426576
0.00161426576
0.001678261044
0.001678261044
0.001678261044
0.001678261044
0.001678261044
0.001678261044
0.001678261044
0.001678261044
0.001678261044
0.001678261044
0.001678261044
0.001678261044
0.001678261044
0.001678261044
0.001678261044
0.001678261044
0.001678261044
0.001678261044
0.001678261044
0.001678261044
0.001678261044
0.001678261044
0.001678261044
0.001678261044
0.001678261044
0.001678261044
0.001678261044
0.001678261044
0.001678261044
0.001678261044
0.001678261044
0.001678261044
0.001678261044
0.001678261044
0.001678261044
0.001678261044
0.001678261044
0.001678261044
0.001678261044
0.001678261044
0.001678261044
0.001678261044
0.001678261044
0.001678261044
0.001678261044
0.001678261044
0.001678261044
0.001741068463
0.001741068463
0.001741068463
0.001741068463
0.001741068463
0.001741068463
0.001741068463
0.001741068463
0.001741068463
0.001741068463
0.001741068463
0.001741068463
0.001741068463
0.001741068463
0.001741068463
0.001741068463
0.001741068463
0.001741068463
0.001741068463
0.001741068463
0.001741068463
0.001741068463
0.001741068463
0.001741068463
0.001741068463
0.001741068463
0.001741068463
0.001741068463
0.001741068463
0.001741068463
0.001741068463
0.001741068463
0.001741068463
0.001741068463
0.001741068463
0.001741068463
0.001741068463
0.001741068463
0.001741068463
0.001741068463
0.001741068463
0.001741068463
0.001741068463
0.001741068463
0.001741068463
0.001741068463
0.001741068463
0.001802710066
0.001802710066
0.001802710066
0.001802710066
0.001802710066
0.001802710066
0.001802710066
0.001802710066
0.001802710066
0.001802710066
0.001802710066
0.001802710066
0.001802710066
0.001802710066
0.001802710066
0.001802710066
0.001802710066
0.001802710066
0.001802710066
0.001802710066
0.001802710066
0.001802710066
0.001802710066
0.001802710066
0.001802710066
0.001802710066
0.001802710066
0.001802710066
0.001802710066
0.001802710066
0.001802710066
0.001802710066
0.001802710066
0.001802710066
0.001802710066
0.001802710066
0.001802710066
0.001802710066
0.001802710066
0.001802710066
0.001802710066
0.001802710066
0.001802710066
0.001802710066
0.001802710066
0.001802710066
0.001802710066
0.001863207492
0.001863207492
0.001863207493
0.001863207493
0.001863207492
0.001863207492
0.001863207493
0.001863207492
0.001863207492
0.001863207492
0.001863207492
0.001863207492
0.001863207492
0.001863207492
0.001863207492
0.001863207492
0.001863207492
0.001863207492
0.001863207493
0.001863207492
0.001863207493
0.001863207492
0.001863207493
0.001863207492
0.001863207492
0.001863207492
0.001863207492
0.001863207493
0.001863207492
0.001863207492
0.001863207492
0.001863207492
0.001863207492
0.001863207492
0.001863207492
0.001863207492
0.001863207492
0.001863207492
0.001863207492
0.001863207493
0.001863207492
0.001863207493
0.001863207492
0.001863207493
0.001863207492
0.001863207492
0.001863207492
0.00192258198
0.00192258198
0.00192258198
0.00192258198
0.00192258198
0.00192258198
0.00192258198
0.00192258198
0.00192258198
0.00192258198
0.00192258198
0.00192258198
0.00192258198
0.00192258198
0.00192258198
0.00192258198
0.00192258198
0.00192258198
0.00192258198
0.00192258198
0.00192258198
0.00192258198
0.00192258198
0.00192258198
0.00192258198
0.00192258198
0.00192258198
0.00192258198
0.00192258198
0.00192258198
0.00192258198
0.00192258198
0.00192258198
0.00192258198
0.00192258198
0.00192258198
0.00192258198
0.00192258198
0.00192258198
0.00192258198
0.00192258198
0.00192258198
0.00192258198
0.00192258198
0.00192258198
0.00192258198
0.00192258198
0.001980854373
0.001980854373
0.001980854373
0.001980854373
0.001980854373
0.001980854373
0.001980854373
0.001980854373
0.001980854373
0.001980854373
0.001980854373
0.001980854373
0.001980854373
0.001980854373
0.001980854373
0.001980854373
0.001980854373
0.001980854373
0.001980854373
0.001980854373
0.001980854373
0.001980854373
0.001980854373
0.001980854373
0.001980854373
0.001980854373
0.001980854373
0.001980854373
0.001980854373
0.001980854373
0.001980854373
0.001980854373
0.001980854373
0.001980854373
0.001980854373
0.001980854373
0.001980854373
0.001980854373
0.001980854373
0.001980854373
0.001980854373
0.001980854373
0.001980854373
0.001980854373
0.001980854373
0.001980854373
0.001980854373
0.002038045128
0.002038045128
0.002038045128
0.002038045128
0.002038045128
0.002038045128
0.002038045128
0.002038045128
0.002038045128
0.002038045128
0.002038045128
0.002038045128
0.002038045128
0.002038045128
0.002038045128
0.002038045128
0.002038045128
0.002038045128
0.002038045128
0.002038045128
0.002038045128
0.002038045128
0.002038045128
0.002038045128
0.002038045128
0.002038045128
0.002038045128
0.002038045128
0.002038045128
0.002038045128
0.002038045128
0.002038045128
0.002038045128
0.002038045128
0.002038045128
0.002038045128
0.002038045128
0.002038045128
0.002038045128
0.002038045128
0.002038045128
0.002038045128
0.002038045128
0.002038045128
0.002038045128
0.002038045128
0.002038045128
0.002094174321
0.002094174322
0.002094174321
0.002094174322
0.002094174322
0.002094174322
0.002094174322
0.002094174322
0.002094174322
0.002094174322
0.002094174321
0.002094174321
0.002094174322
0.002094174321
0.002094174322
0.002094174322
0.002094174321
0.002094174322
0.002094174321
0.002094174321
0.002094174321
0.002094174321
0.002094174322
0.002094174321
0.002094174322
0.002094174321
0.002094174321
0.002094174322
0.002094174321
0.002094174322
0.002094174322
0.002094174322
0.002094174322
0.002094174322
0.002094174321
0.002094174322
0.002094174322
0.002094174321
0.002094174322
0.002094174321
0.002094174321
0.002094174321
0.002094174321
0.002094174322
0.002094174321
0.002094174322
0.002094174322
0.002149261659
0.002149261659
0.002149261659
0.002149261658
0.002149261659
0.002149261659
0.002149261659
0.002149261658
0.002149261659
0.002149261658
0.002149261659
0.002149261659
0.002149261659
0.002149261659
0.002149261659
0.002149261659
0.002149261659
0.002149261659
0.002149261659
0.002149261659
0.002149261659
0.002149261659
0.002149261659
0.002149261659
0.002149261658
0.002149261659
0.002149261659
0.002149261658
0.002149261659
0.002149261659
0.002149261659
0.002149261659
0.002149261658
0.002149261659
0.002149261659
0.002149261658
0.002149261658
0.002149261659
0.002149261659
0.002149261659
0.002149261658
0.002149261659
0.002149261659
0.002149261659
0.002149261658
0.002149261659
0.002149261659
0.002203326478
0.002203326478
0.002203326478
0.002203326478
0.002203326478
0.002203326478
0.002203326478
0.002203326478
0.002203326478
0.002203326478
0.002203326478
0.002203326478
0.002203326478
0.002203326478
0.002203326478
0.002203326478
0.002203326478
0.002203326478
0.002203326478
0.002203326478
0.002203326478
0.002203326478
0.002203326478
0.002203326478
0.002203326478
0.002203326478
0.002203326478
0.002203326478
0.002203326478
0.002203326478
0.002203326478
0.002203326478
0.002203326478
0.002203326478
0.002203326478
0.002203326478
0.002203326478
0.002203326478
0.002203326478
0.002203326478
0.002203326478
0.002203326478
0.002203326478
0.002203326478
0.002203326478
0.002203326478
0.002203326478
0.00225638776
0.002256387759
0.00225638776
0.00225638776
0.002256387759
0.00225638776
0.00225638776
0.00225638776
0.002256387759
0.00225638776
0.002256387759
0.002256387759
0.00225638776
0.00225638776
0.00225638776
0.00225638776
0.002256387759
0.00225638776
0.00225638776
0.002256387759
0.00225638776
0.002256387759
0.002256387759
0.00225638776
0.002256387759
0.00225638776
0.002256387759
0.002256387759
0.00225638776
0.002256387759
0.00225638776
0.00225638776
0.002256387759
0.00225638776
0.00225638776
0.00225638776
0.002256387759
0.00225638776
0.00225638776
0.002256387759
0.002256387759
0.002256387759
0.00225638776
0.002256387759
0.002256387759
0.002256387759
0.00225638776
0.00230846413
0.00230846413
0.002308464131
0.00230846413
0.00230846413
0.002308464131
0.00230846413
0.00230846413
0.002308464131
0.00230846413
0.00230846413
0.00230846413
0.00230846413
0.00230846413
0.002308464131
0.002308464131
0.00230846413
0.002308464131
0.00230846413
0.00230846413
0.00230846413
0.00230846413
0.002308464131
0.002308464131
0.00230846413
0.002308464131
0.00230846413
0.00230846413
0.00230846413
0.002308464131
0.00230846413
0.00230846413
0.00230846413
0.00230846413
0.00230846413
0.00230846413
0.00230846413
0.00230846413
0.002308464131
0.002308464131
0.00230846413
0.00230846413
0.00230846413
0.00230846413
0.002308464131
0.00230846413
0.00230846413
0.002359573872
0.002359573873
0.002359573872
0.002359573872
0.002359573872
0.002359573872
0.002359573873
0.002359573872
0.002359573872
0.002359573872
0.002359573872
0.002359573872
0.002359573872
0.002359573872
0.002359573872
0.002359573872
0.002359573872
0.002359573872
0.002359573872
0.002359573872
0.002359573872
0.002359573872
0.002359573873
0.002359573872
0.002359573872
0.002359573872
0.002359573872
0.002359573873
0.002359573872
0.002359573872
0.002359573872
0.002359573872
0.002359573872
0.002359573873
0.002359573872
0.002359573872
0.002359573873
0.002359573872
0.002359573872
0.002359573872
0.002359573872
0.002359573872
0.002359573872
0.002359573872
0.002359573872
0.002359573872
0.002359573872
0.002409734928
0.002409734928
0.002409734928
0.002409734927
0.002409734927
0.002409734927
0.002409734927
0.002409734927
0.002409734927
0.002409734927
0.002409734927
0.002409734927
0.002409734927
0.002409734927
0.002409734927
0.002409734928
0.002409734927
0.002409734927
0.002409734927
0.002409734928
0.002409734927
0.002409734927
0.002409734927
0.002409734927
0.002409734928
0.002409734927
0.002409734927
0.002409734927
0.002409734928
0.002409734927
0.002409734928
0.002409734927
0.002409734928
0.002409734928
0.002409734928
0.002409734927
0.002409734927
0.002409734927
0.002409734927
0.002409734927
0.002409734927
0.002409734927
0.002409734927
0.002409734927
0.002409734928
0.002409734928
0.002409734927
0.002458964905
0.002458964905
0.002458964905
0.002458964905
0.002458964905
0.002458964905
0.002458964905
0.002458964905
0.002458964905
0.002458964905
0.002458964905
0.002458964905
0.002458964905
0.002458964905
0.002458964905
0.002458964905
0.002458964905
0.002458964905
0.002458964905
0.002458964905
0.002458964905
0.002458964905
0.002458964905
0.002458964905
0.002458964905
0.002458964905
0.002458964905
0.002458964905
0.002458964905
0.002458964905
0.002458964905
0.002458964905
0.002458964905
0.002458964905
0.002458964905
0.002458964905
0.002458964905
0.002458964905
0.002458964905
0.002458964905
0.002458964905
0.002458964905
0.002458964905
0.002458964905
0.002458964905
0.002458964905
0.002458964905
0.002507281088
0.002507281088
0.002507281088
0.002507281088
0.002507281088
0.002507281088
0.002507281088
0.002507281088
0.002507281088
0.002507281088
0.002507281088
0.002507281088
0.002507281088
0.002507281088
0.002507281088
0.002507281088
0.002507281088
0.002507281088
0.002507281088
0.002507281088
0.002507281088
0.002507281088
0.002507281088
0.002507281088
0.002507281088
0.002507281088
0.002507281088
0.002507281088
0.002507281088
0.002507281088
0.002507281088
0.002507281088
0.002507281088
0.002507281088
0.002507281088
0.002507281088
0.002507281088
0.002507281088
0.002507281088
0.002507281088
0.002507281088
0.002507281088
0.002507281088
0.002507281088
0.002507281088
0.002507281088
0.002507281088
0.002554700438
0.002554700438
0.002554700438
0.002554700438
0.002554700438
0.002554700438
0.002554700438
0.002554700438
0.002554700438
0.002554700438
0.002554700438
0.002554700438
0.002554700438
0.002554700438
0.002554700438
0.002554700438
0.002554700438
0.002554700438
0.002554700438
0.002554700438
0.002554700438
0.002554700438
0.002554700438
0.002554700438
0.002554700438
0.002554700438
0.002554700438
0.002554700438
0.002554700438
0.002554700438
0.002554700438
0.002554700438
0.002554700438
0.002554700438
0.002554700438
0.002554700438
0.002554700438
0.002554700438
0.002554700438
0.002554700438
0.002554700438
0.002554700438
0.002554700438
0.002554700438
0.002554700438
0.002554700438
0.002554700438
0.002601239601
0.002601239601
0.002601239601
0.002601239601
0.002601239601
0.002601239601
0.002601239601
0.002601239601
0.002601239601
0.002601239601
0.002601239601
0.002601239601
0.002601239601
0.002601239601
0.002601239601
0.002601239601
0.002601239601
0.002601239601
0.002601239601
0.002601239601
0.002601239601
0.002601239601
0.002601239601
0.002601239601
0.002601239601
0.002601239601
0.002601239601
0.002601239601
0.002601239601
0.002601239601
0.002601239601
0.002601239601
0.002601239601
0.002601239601
0.002601239601
0.002601239601
0.002601239601
0.002601239601
0.002601239601
0.002601239601
0.002601239601
0.002601239601
0.002601239601
0.002601239601
0.002601239601
0.002601239601
0.002601239601
0.002646914915
0.002646914915
0.002646914915
0.002646914915
0.002646914915
0.002646914915
0.002646914915
0.002646914915
0.002646914915
0.002646914915
0.002646914915
0.002646914915
0.002646914915
0.002646914915
0.002646914915
0.002646914915
0.002646914915
0.002646914915
0.002646914915
0.002646914915
0.002646914915
0.002646914915
0.002646914915
0.002646914915
0.002646914915
0.002646914915
0.002646914915
0.002646914915
0.002646914915
0.002646914915
0.002646914915
0.002646914915
0.002646914915
0.002646914915
0.002646914915
0.002646914915
0.002646914915
0.002646914915
0.002646914915
0.002646914915
0.002646914915
0.002646914915
0.002646914915
0.002646914915
0.002646914915
0.002646914915
0.002646914915
0.002691742415
0.002691742416
0.002691742416
0.002691742415
0.002691742415
0.002691742416
0.002691742415
0.002691742415
0.002691742416
0.002691742416
0.002691742415
0.002691742415
0.002691742416
0.002691742415
0.002691742415
0.002691742415
0.002691742415
0.002691742416
0.002691742416
0.002691742415
0.002691742415
0.002691742415
0.002691742416
0.002691742415
0.002691742415
0.002691742416
0.002691742415
0.002691742416
0.002691742415
0.002691742416
0.002691742415
0.002691742415
0.002691742416
0.002691742416
0.002691742415
0.002691742415
0.002691742415
0.002691742416
0.002691742415
0.002691742416
0.002691742415
0.002691742416
0.002691742415
0.002691742415
0.002691742415
0.002691742415
0.002691742415
0.002735737838
0.002735737839
0.002735737839
0.002735737839
0.002735737838
0.002735737839
0.002735737839
0.002735737838
0.002735737838
0.002735737839
0.002735737839
0.002735737838
0.002735737839
0.002735737839
0.002735737839
0.002735737838
0.002735737839
0.002735737838