/*--------------------------------*- C++ -*----------------------------------*\
  =========                 |
  \\      /  F ield         | OpenFOAM: The Open Source CFD Toolbox
   \\    /   O peration     | Website:  https://openfoam.org
    \\  /    A nd           | Version:  7
     \\/     M anipulation  |
\*---------------------------------------------------------------------------*/
FoamFile
{
    version     2.0;
    format      ascii;
    class       volScalarField;
    location    "constant";
    object      V;
}
// * * * * * * * * * * * * * * * * * * * * * * * * * * * * * * * * * * * * * //

dimensions      [0 3 0 0 0 0 0];

internalField   nonuniform List<scalar> 
11045
(
8.639675947e-12
7.854250856e-12
7.140228057e-12
6.49111642e-12
5.901014914e-12
5.364559023e-12
4.876871839e-12
4.433519853e-12
4.030472588e-12
3.664065993e-12
3.330969086e-12
3.028153711e-12
2.752867014e-12
2.502606372e-12
2.275096702e-12
2.068269733e-12
1.880245208e-12
1.709313825e-12
1.553921665e-12
1.412656056e-12
1.284232776e-12
1.167484341e-12
1.061349407e-12
9.648630942e-13
8.771482666e-13
7.974075142e-13
7.249159254e-13
6.590144725e-13
5.991040736e-13
5.446400584e-13
4.951273292e-13
4.501157573e-13
4.091961327e-13
3.719964911e-13
3.381786368e-13
3.074351082e-13
2.794864714e-13
2.540786146e-13
2.309805493e-13
2.099823244e-13
1.908930154e-13
1.735391083e-13
1.577628274e-13
1.434207539e-13
1.30382501e-13
1.185295395e-13
1.077541362e-13
8.47930837e-12
7.708462151e-12
7.00769287e-12
6.370629886e-12
5.791481702e-12
5.264983376e-12
4.786348522e-12
4.351225929e-12
3.95565993e-12
3.596054486e-12
3.269140443e-12
2.971945854e-12
2.701768962e-12
2.456153598e-12
2.232866907e-12
2.029879011e-12
1.845344551e-12
1.677585955e-12
1.525078147e-12
1.386434676e-12
1.260395158e-12
1.145813778e-12
1.041648896e-12
9.469535386e-13
8.608668525e-13
7.826062287e-13
7.114602112e-13
6.467820052e-13
5.879836486e-13
5.345305813e-13
4.859368954e-13
4.417608174e-13
4.01600733e-13
3.650915822e-13
3.319014467e-13
3.01728572e-13
2.74298711e-13
2.493624688e-13
2.266931442e-13
2.060846833e-13
1.873497053e-13
1.703179173e-13
1.54834472e-13
1.407586125e-13
1.279623725e-13
1.163294229e-13
1.0575403e-13
8.321917505e-12
7.565379546e-12
6.877617775e-12
6.252379799e-12
5.683981624e-12
5.167256031e-12
4.697505482e-12
4.270459529e-12
3.88223593e-12
3.529305395e-12
3.208459451e-12
2.916781316e-12
2.651619382e-12
2.41056307e-12
2.191420973e-12
1.992200889e-12
1.811091713e-12
1.646447012e-12
1.496770016e-12
1.360700012e-12
1.237000009e-12
1.124545461e-12
1.022314062e-12
9.293764168e-13
8.448876508e-13
7.680796817e-13
6.982542594e-13
6.347765945e-13
5.770696388e-13
5.246087543e-13
4.769170526e-13
4.335609602e-13
3.941463176e-13
3.583148408e-13
3.257407726e-13
2.961279594e-13
2.692072449e-13
2.447338631e-13
2.224853211e-13
2.022593894e-13
1.838721656e-13
1.671565174e-13
1.51960472e-13
1.381458853e-13
1.25587166e-13
1.141701443e-13
1.037910494e-13
8.167448092e-12
7.424952807e-12
6.749957103e-12
6.136324643e-12
5.578476936e-12
5.071342679e-12
4.610311526e-12
4.191192296e-12
3.810174809e-12
3.463795285e-12
3.148904805e-12
2.862640729e-12
2.602400667e-12
2.365818784e-12
2.150744349e-12
1.955222139e-12
1.777474668e-12
1.615886062e-12
1.468987335e-12
1.335443028e-12
1.214039115e-12
1.103671921e-12
1.003338117e-12
9.121255573e-13
8.292050513e-13
7.538227731e-13
6.852934333e-13
6.229940254e-13
5.663582122e-13
5.148710939e-13
4.680646341e-13
4.255133069e-13
3.868302693e-13
3.516638877e-13
3.196944514e-13
2.906313041e-13
2.642102854e-13
2.401911725e-13
2.183556025e-13
1.985050997e-13
1.804591751e-13
1.640537987e-13
1.491398186e-13
1.355816549e-13
1.232560475e-13
1.120509458e-13
1.018645051e-13
8.015845889e-12
7.287132622e-12
6.624666025e-12
6.022423663e-12
5.474930591e-12
4.977209638e-12
4.524736034e-12
4.113396394e-12
3.739451262e-12
3.399501151e-12
3.090455593e-12
2.809505081e-12
2.554095532e-12
2.321905025e-12
2.11082275e-12
1.918929777e-12
1.744481612e-12
1.585892374e-12
1.441720346e-12
1.310654856e-12
1.191504413e-12
1.083185829e-12
9.847143961e-13
8.951949024e-13
8.138135469e-13
7.398304964e-13
6.725731817e-13
6.114301604e-13
5.558456075e-13
5.053141807e-13
4.593765311e-13
4.176150314e-13
3.796500191e-13
3.451363873e-13
3.1376036e-13
2.852366759e-13
2.593060777e-13
2.357328019e-13
2.143025384e-13
1.948204958e-13
1.771095353e-13
1.610086716e-13
1.463715213e-13
1.330650209e-13
1.209681985e-13
1.099710832e-13
9.997372068e-14
7.867057709e-12
7.15187064e-12
6.501700587e-12
5.910636902e-12
5.373306263e-12
4.884823884e-12
4.440748985e-12
4.037044532e-12
3.670040478e-12
3.336400438e-12
3.033091308e-12
2.757355732e-12
2.506687033e-12
2.27880639e-12
2.071642172e-12
1.88331107e-12
1.712100969e-12
1.556455426e-12
1.414959484e-12
1.2863268e-12
1.169387999e-12
1.063079997e-12
9.664363673e-13
8.785785126e-13
7.987077379e-13
7.260979428e-13
6.60089042e-13
6.000809426e-13
5.455281367e-13
4.959346619e-13
4.508496958e-13
4.098633629e-13
3.726030478e-13
3.387300497e-13
3.079364166e-13
2.799421821e-13
2.544929014e-13
2.31357187e-13
2.103247069e-13
1.912042852e-13
1.738220712e-13
1.580200679e-13
1.436546087e-13
1.305951004e-13
1.187228162e-13
1.079298267e-13
9.811803282e-14
7.721031278e-12
7.01911934e-12
6.381017587e-12
5.800925083e-12
5.273568246e-12
4.79415296e-12
4.358320872e-12
3.962109884e-12
3.601918071e-12
3.274470977e-12
2.976791798e-12
2.706174359e-12
2.460158512e-12
2.236507734e-12
2.033188849e-12
1.848353503e-12
1.680321363e-12
1.527564875e-12
1.388695346e-12
1.262450312e-12
1.1476821e-12
1.043347362e-12
9.484976082e-13
8.622705499e-13
7.838823173e-13
7.126202877e-13
6.478366282e-13
5.889423847e-13
5.354021748e-13
4.867292422e-13
4.424811323e-13
4.022555779e-13
3.656868798e-13
3.324426241e-13
3.02220575e-13
2.747459628e-13
2.497690655e-13
2.270627906e-13
2.064207103e-13
1.876551973e-13
1.705956278e-13
1.550869374e-13
1.409881265e-13
1.281710256e-13
1.165191119e-13
1.059264592e-13
9.629678953e-14
7.577715372e-12
6.888832152e-12
6.262574689e-12
5.693249721e-12
5.175681553e-12
4.705165057e-12
4.277422779e-12
3.888566163e-12
3.535060142e-12
3.213691042e-12
2.921537312e-12
2.655943008e-12
2.414493647e-12
2.194994221e-12
1.995449292e-12
1.814044815e-12
1.649131646e-12
1.499210587e-12
1.362918721e-12
1.239017016e-12
1.126379104e-12
1.023981002e-12
9.30891826e-13
8.462652934e-13
7.693320842e-13
6.99392803e-13
6.358116421e-13
5.780105792e-13
5.254641697e-13
4.776946922e-13
4.34267905e-13
3.947890076e-13
3.588990888e-13
3.262719049e-13
2.966108301e-13
2.69646195e-13
2.451329128e-13
2.228481063e-13
2.025891793e-13
1.841719871e-13
1.674290732e-13
1.522082514e-13
1.383711391e-13
1.257919462e-13
1.143563124e-13
1.03960278e-13
9.450935191e-14
7.437059645e-12
6.760963309e-12
6.146330286e-12
5.587572991e-12
5.079611799e-12
4.617828917e-12
4.198026288e-12
3.816387534e-12
3.469443208e-12
3.154039284e-12
2.86730844e-12
2.606644034e-12
2.369676398e-12
2.154251267e-12
1.958410243e-12
1.780372952e-12
1.618520862e-12
1.471382601e-12
1.337620552e-12
1.216018681e-12
1.105471526e-12
1.004974113e-12
9.136128362e-13
8.305571209e-13
7.550519274e-13
6.864108423e-13
6.240098596e-13
5.672816861e-13
5.157106304e-13
4.688278384e-13
4.262071288e-13
3.874610291e-13
3.522372904e-13
3.202157244e-13
2.911052114e-13
2.646410873e-13
2.405828147e-13
2.187116534e-13
1.988287677e-13
1.807534311e-13
1.643212951e-13
1.493829985e-13
1.358027274e-13
1.234570264e-13
1.122336581e-13
1.020305924e-13
9.275509209e-14
7.299014756e-12
6.635467956e-12
6.032243602e-12
5.483857823e-12
4.985325283e-12
4.532113902e-12
4.120103547e-12
3.745548679e-12
3.405044249e-12
3.095494775e-12
2.81408616e-12
2.558260142e-12
2.325691042e-12
2.11426458e-12
1.922058709e-12
1.747326103e-12
1.588478272e-12
1.444071156e-12
1.312791965e-12
1.193447238e-12
1.084952033e-12
9.863200288e-13
8.966545774e-13
8.151405221e-13
7.410368375e-13
6.736698516e-13
6.124271407e-13
5.567519417e-13
5.061381353e-13
4.601255704e-13
4.182959759e-13
3.802690719e-13
3.456991476e-13
3.142719582e-13
2.857017874e-13
2.597288839e-13
2.361171751e-13
2.14651981e-13
1.951381566e-13
1.7739833e-13
1.612712033e-13
1.466101877e-13
1.332819902e-13
1.211654471e-13
1.101504043e-13
1.001367254e-13
9.103339468e-14
7.163532202e-12
6.512301998e-12
5.920274548e-12
5.382067775e-12
4.892788876e-12
4.447989895e-12
4.043627177e-12
3.676024706e-12
3.341840637e-12
3.038036946e-12
2.76185177e-12
2.510774334e-12
2.282522125e-12
2.07502011e-12
1.886381918e-12
1.714892657e-12
1.558993321e-12
1.417266655e-12
1.288424237e-12
1.171294758e-12
1.064813415e-12
9.680121939e-13
8.800110911e-13
8.0001008e-13
7.272818902e-13
6.61165354e-13
6.010594155e-13
5.464176462e-13
4.967433211e-13
4.515848303e-13
4.105316668e-13
3.73210609e-13
3.392823633e-13
3.084385178e-13
2.803986596e-13
2.549078589e-13
2.31734425e-13
2.106676626e-13
1.915160491e-13
1.741055049e-13
1.58277726e-13
1.438888447e-13
1.30808042e-13
1.189164033e-13
1.08105819e-13
9.827801163e-14
8.934365473e-14
7.030564415e-12
6.391422191e-12
5.810383815e-12
5.282167108e-12
4.801970088e-12
4.365427361e-12
3.968570328e-12
3.607791207e-12
3.279810183e-12
2.981645625e-12
2.710586932e-12
2.464169936e-12
2.24015449e-12
2.036504079e-12
1.851367344e-12
1.683061225e-12
1.530055656e-12
1.390959687e-12
1.264508812e-12
1.149553462e-12
1.045048601e-12
9.50044181e-13
8.636765338e-13
7.851604825e-13
7.137822561e-13
6.488929594e-13
5.899026931e-13
5.362751714e-13
4.875228893e-13
4.432026197e-13
4.029114753e-13
3.662831621e-13
3.329846845e-13
3.027133551e-13
2.751939661e-13
2.501763196e-13
2.274330255e-13
2.067572994e-13
1.879611736e-13
1.708737997e-13
1.553398124e-13
1.41218014e-13
1.283800142e-13
1.167091052e-13
1.060991844e-13
9.645379847e-14
8.768527898e-14
6.900064895e-12
6.272786265e-12
5.702532973e-12
5.184120888e-12
4.71283716e-12
4.284397427e-12
3.894906751e-12
3.540824319e-12
3.218931194e-12
2.926301089e-12
2.660273718e-12
2.41843065e-12
2.198573322e-12
1.998703016e-12
1.817002742e-12
1.651820678e-12
1.501655158e-12
1.365141053e-12
1.241037326e-12
1.128215748e-12
1.025650679e-12
9.324097065e-13
8.476451932e-13
7.705865365e-13
7.005332143e-13
6.36848376e-13
5.789530718e-13
5.263209703e-13
4.784736155e-13
4.349760073e-13
3.954327366e-13
3.594843087e-13
3.268039088e-13
2.97094468e-13
2.700858869e-13
2.455326115e-13
2.232114725e-13
2.029195238e-13
1.844722869e-13
1.677020844e-13
1.524564349e-13
1.385967618e-13
1.259970575e-13
1.145427809e-13
1.041297988e-13
9.466344799e-14
8.60576875e-14
6.771987456e-12
6.156352229e-12
5.596683849e-12
5.087894412e-12
4.625358546e-12
4.204871414e-12
3.822610375e-12
3.475100341e-12
3.159182124e-12
2.871983752e-12
2.610894321e-12
2.373540289e-12
2.157763902e-12
1.961603544e-12
1.783275949e-12
1.621159957e-12
1.473781776e-12
1.339801615e-12
1.218001472e-12
1.107274063e-12
1.006612783e-12
9.15102529e-13
8.319113954e-13
7.56283084e-13
6.875300757e-13
6.250273409e-13
5.682066762e-13
5.165515198e-13
4.695922968e-13
4.269020813e-13
3.880928038e-13
3.528116425e-13
3.207378488e-13
2.915798679e-13
2.650726139e-13
2.409750908e-13
2.190682717e-13
1.991529777e-13
1.810481541e-13
1.645892364e-13
1.496265732e-13
1.360241601e-13
1.236583287e-13
1.124166638e-13
1.021969651e-13
9.290632655e-14
8.446030423e-14
6.646287519e-12
6.042079559e-12
5.492799604e-12
4.993454188e-12
4.539503798e-12
4.126821642e-12
3.751656038e-12
3.410596398e-12
3.100542175e-12
2.818674708e-12
2.562431554e-12
2.329483228e-12
2.117712029e-12
1.92519275e-12
1.750175227e-12
1.591068392e-12
1.446425807e-12
1.314932552e-12
1.195393234e-12
1.086721119e-12
9.879282887e-13
8.981166248e-13
8.164696642e-13
7.422451466e-13
6.747683144e-13
6.134257397e-13
5.57659766e-13
5.069634197e-13
4.60875842e-13
4.189780316e-13
3.808891223e-13
3.462628411e-13
3.147843931e-13
2.861676353e-13
2.601524023e-13
2.365021715e-13
2.150019813e-13
1.954563499e-13
1.776875836e-13
1.615341722e-13
1.468492422e-13
1.334993137e-13
1.213630138e-13
1.103300138e-13
1.003000106e-13
9.118182255e-14
8.289257318e-14
6.522920671e-12
5.929927879e-12
5.390843531e-12
4.90076685e-12
4.455242581e-12
4.050220536e-12
3.682018668e-12
3.347289698e-12
3.04299063e-12
2.766355122e-12
2.514868293e-12
2.2862439e-12
2.078403549e-12
1.889457769e-12
1.71768888e-12
1.561535349e-12
1.419577587e-12
1.290525079e-12
1.173204622e-12
1.066549654e-12
9.695905929e-13
8.814459922e-13
8.013145436e-13
7.284677643e-13
6.622434214e-13
6.020394734e-13
5.473086147e-13
4.975532823e-13
4.523211715e-13
4.112010586e-13
3.738191467e-13
3.398355905e-13
3.089414382e-13
2.80855858e-13
2.553235138e-13
2.32112273e-13
2.110111644e-13
1.918283345e-13
1.743893879e-13
1.585358123e-13
1.441234606e-13
1.310213304e-13
1.191103016e-13
1.082820937e-13
9.843826505e-14
8.94893267e-14
8.135394046e-14
6.401843879e-12
5.819858068e-12
5.290780067e-12
4.809800064e-12
4.372545503e-12
3.975041374e-12
3.613673976e-12
3.28515816e-12
2.986507413e-12
2.715006743e-12
2.468187949e-12
2.243807223e-12
2.039824752e-12
1.854386135e-12
1.685805577e-12
1.532550528e-12
1.393227749e-12
1.266570681e-12
1.151427896e-12
1.046752631e-12
9.515932993e-13
8.650848163e-13
7.864407471e-13
7.149461312e-13
6.499510277e-13
5.9086457e-13
5.371496117e-13
4.88317825e-13
4.439253011e-13
4.035684492e-13
3.668804109e-13
3.335276488e-13
3.032069459e-13
2.756426832e-13
2.505842637e-13
2.278038641e-13
2.070944289e-13
1.882676658e-13
1.711524165e-13
1.555931109e-13
1.414482776e-13
1.285893458e-13
1.168994066e-13
1.06272189e-13
9.661107905e-14
8.782824862e-14
7.984386934e-14
6.283014385e-12
5.711831256e-12
5.192573874e-12
4.720521706e-12
4.29138336e-12
3.901257608e-12
3.546597824e-12
3.22417984e-12
2.931072578e-12
2.664611438e-12
2.422374035e-12
2.202158211e-12
2.001962013e-12
1.819965463e-12
1.654514058e-12
1.504103692e-12
1.367366989e-12
1.243060899e-12
1.130055367e-12
1.027323059e-12
9.339300523e-13
8.49027319e-13
7.718430223e-13
7.016754723e-13
6.378867924e-13
5.798970834e-13
5.271791692e-13
4.792537864e-13
4.35685266e-13
3.960775083e-13
3.600704646e-13
3.273367885e-13
2.975788912e-13
2.705262697e-13
2.459329786e-13
2.235754233e-13
2.032503917e-13
1.847730864e-13
1.679755263e-13
1.527050289e-13
1.388227486e-13
1.262025012e-13
1.147295478e-13
1.042995901e-13
9.481780733e-14
8.619800169e-14
7.836182655e-14
6.166390536e-12
5.605809575e-12
5.096190527e-12
4.632900482e-12
4.211727702e-12
3.828843373e-12
3.480766702e-12
3.164333365e-12
2.876666692e-12
2.615151541e-12
2.377410492e-12
2.161282263e-12
1.964802061e-12
1.786183688e-12
1.623803353e-12
1.47618487e-12
1.341986242e-12
1.219987493e-12
1.109079543e-12
1.008254128e-12
9.165946603e-13
8.332678717e-13
7.575162519e-13
6.886511357e-13
6.260464864e-13
5.691331688e-13
5.173937923e-13
4.703579893e-13
4.275981776e-13
3.887256099e-13
3.533869205e-13
3.212608393e-13
2.920553011e-13
2.655048241e-13
2.41368028e-13
2.194254684e-13
1.994777053e-13
1.813433715e-13
1.648576037e-13
1.498705537e-13
1.36245953e-13
1.238599597e-13
1.125999646e-13
1.023636054e-13
9.305782128e-14
8.459801447e-14
7.690729259e-14
6.051931505e-12
5.501755911e-12
5.001596287e-12
4.546905718e-12
4.133550644e-12
3.75777332e-12
3.416157563e-12
3.105597784e-12
2.823270709e-12
2.566609738e-12
2.333281581e-12
2.121165071e-12
1.928331886e-12
1.753028984e-12
1.593662713e-12
1.448784287e-12
1.317076622e-12
1.197342384e-12
1.08849308e-12
9.895391614e-13
8.995810546e-13
8.178009576e-13
7.434554207e-13
6.758685619e-13
6.144259648e-13
5.585690583e-13
5.077900554e-13
4.616273195e-13
4.196612049e-13
3.815101803e-13
3.46827439e-13
3.152976742e-13
2.866342421e-13
2.605765885e-13
2.368878138e-13
2.153525466e-13
1.957750489e-13
1.779773202e-13
1.617975572e-13
1.470886932e-13
1.33716989e-13
1.215609015e-13
1.105099117e-13
1.004635572e-13
9.133050479e-14
8.302772684e-14
7.547975826e-14
5.939597017e-12
5.399633649e-12
4.908757867e-12
4.462507154e-12
4.056824677e-12
3.688022441e-12
3.352747673e-12
3.04795243e-12
2.770865841e-12
2.518968949e-12
2.289971773e-12
2.081792518e-12
1.892538656e-12
1.720489684e-12
1.564081531e-12
1.421892304e-12
1.292629364e-12
1.175117604e-12
1.068288735e-12
9.711715749e-13
8.828832488e-13
8.026211341e-13
7.296555811e-13
6.633232532e-13
6.030211387e-13
5.482010346e-13
4.983645793e-13
4.530587049e-13
4.118715552e-13
3.744286807e-13
3.40389712e-13
3.094451951e-13
2.813138067e-13
2.55739829e-13
2.324907595e-13
2.113552247e-13
1.921411199e-13
1.746737483e-13
1.587943101e-13
1.443584685e-13
1.312349666e-13
1.193045175e-13
1.084586534e-13
9.859877701e-14
8.963525006e-14
8.148658627e-14
7.407872125e-14
5.829347717e-12
5.299407012e-12
4.817642742e-12
4.379675223e-12
3.981522922e-12
3.619566299e-12
3.290514817e-12
2.991377106e-12
2.719433729e-12
2.472212484e-12
2.247465895e-12
2.043150811e-12
1.857409831e-12
1.688554389e-12
1.535049445e-12
1.395499498e-12
1.268635904e-12
1.153305368e-12
1.048459429e-12
9.531449333e-13
8.664953928e-13
7.877230832e-13
7.161118984e-13
6.510108144e-13
5.918280126e-13
5.380254654e-13
4.891140617e-13
4.446491436e-13
4.042264994e-13
3.6747863e-13
3.340714841e-13
3.037013515e-13
2.760921308e-13
2.509928508e-13
2.281753247e-13
2.074321024e-13
1.885746449e-13
1.714314982e-13
1.558468102e-13
1.41678923e-13
1.287990163e-13
1.170900171e-13
1.064454713e-13
9.67686114e-14
8.797146318e-14
7.997405282e-14
7.270369073e-14
5.721144708e-12
5.201040641e-12
4.728218769e-12
4.298380702e-12
3.907618811e-12
3.552380744e-12
3.22943704e-12
2.935851854e-12
2.668956227e-12
2.426323846e-12
2.205748951e-12
2.005226317e-12
1.822933018e-12
1.657211832e-12
1.506556211e-12
1.369596558e-12
1.245087777e-12
1.131897979e-12
1.028998167e-12
9.354528768e-13
8.504117051e-13
7.73101549e-13
7.028195945e-13
6.389269018e-13
5.808426374e-13
5.280387607e-13
4.800352393e-13
4.363956687e-13
3.967233403e-13
3.606575764e-13
3.278705263e-13
2.980641171e-13
2.709673724e-13
2.463339794e-13
2.239399869e-13
2.035817955e-13
1.850743658e-13
1.682494263e-13
1.529540177e-13
1.390491115e-13
1.264082787e-13
1.149166192e-13
1.04469655e-13
9.497241474e-14
8.633855716e-14
7.84895929e-14
7.135418158e-14
5.614950292e-12
5.104500263e-12
4.640454788e-12
4.218595265e-12
3.835086596e-12
3.486442367e-12
3.16949306e-12
2.881357327e-12
2.619415748e-12
2.381287047e-12
2.164806407e-12
1.968005822e-12
1.789096205e-12
1.626451092e-12
1.478591902e-12
1.344174459e-12
1.221976778e-12
1.11088798e-12
1.009898168e-12
9.180892412e-13
8.346265818e-13
7.587514369e-13
6.89774038e-13
6.27067305e-13
5.700611858e-13
5.182374411e-13
4.711249487e-13
4.282954046e-13
3.893594637e-13
3.539631433e-13
3.217846779e-13
2.925315276e-13
2.659377457e-13
2.417615914e-13
2.197832705e-13
1.998029626e-13
1.81639063e-13
1.651264237e-13
1.501149246e-13
1.364681177e-13
1.240619207e-13
1.127835665e-13
1.025305161e-13
9.320956121e-14
8.473596307e-14
7.703268926e-14
7.002972362e-14
5.51072686e-12
5.009751688e-12
4.55431972e-12
4.140290657e-12
3.763900589e-12
3.421727815e-12
3.110661649e-12
2.827874227e-12
2.570794748e-12
2.337086137e-12
2.124623761e-12
1.931476145e-12
1.755887407e-12
1.596261276e-12
1.451146615e-12
1.319224198e-12
1.199294723e-12
1.09026793e-12
9.911526672e-13
9.010478771e-13
8.191344327e-13
7.44667665e-13
6.769706089e-13
6.154278241e-13
5.594798395e-13
5.086180354e-13
4.623800343e-13
4.203454825e-13
3.821322617e-13
3.473929598e-13
3.158117838e-13
2.871016238e-13
2.610014696e-13
2.372740677e-13
2.157037033e-13
1.960942654e-13
1.7826752e-13
1.620613845e-13
1.473285254e-13
1.339350275e-13
1.217591115e-13
1.106901035e-13
1.00627368e-13
9.14794265e-14
8.316311337e-14
7.560282597e-14
6.872984779e-14
5.40843809e-12
4.916761897e-12
4.469783547e-12
4.06343959e-12
3.694035983e-12
3.358214537e-12
3.052922306e-12
2.775383914e-12
2.523076282e-12
2.293705713e-12
2.085187013e-12
1.895624555e-12
1.723295053e-12
1.566631863e-12
1.424210785e-12
1.29473708e-12
1.177033706e-12
1.070030642e-12
9.727551329e-13
8.843228459e-13
8.039298589e-13
7.308453252e-13
6.644048453e-13
6.040044027e-13
5.49094911e-13
4.991771913e-13
4.537974488e-13
4.12543132e-13
3.750392158e-13
3.409447363e-13
3.099497624e-13
2.817725134e-13
2.561568239e-13
2.328698442e-13
2.116998637e-13
1.924544114e-13
1.749585617e-13
1.590532406e-13
1.445938492e-13
1.314489581e-13
1.194990485e-13
1.086355008e-13
9.875954726e-14
8.978140767e-14
8.161945991e-14
7.419950473e-14
6.745410109e-14
5.30804803e-12
4.825498206e-12
4.386816555e-12
3.988015053e-12
3.625468222e-12
3.295880208e-12
2.996254734e-12
2.72386794e-12
2.476243578e-12
2.251130528e-12
2.046482299e-12
1.860438451e-12
1.691307686e-12
1.537552439e-12
1.397774944e-12
1.270704498e-12
1.155185904e-12
1.050169004e-12
9.546990981e-13
8.679082689e-13
7.890075161e-13
7.172795591e-13
6.520723306e-13
5.927930257e-13
5.389027502e-13
4.899115905e-13
4.453741753e-13
4.048856108e-13
3.680778327e-13
3.346162063e-13
3.041965533e-13
2.765423233e-13
2.514021058e-13
2.285473731e-13
2.077703444e-13
1.888821213e-13
1.717110251e-13
1.561009346e-13
1.419099347e-13
1.290090358e-13
1.172809374e-13
1.066190361e-13
9.692639752e-14
8.811490789e-14
8.010446014e-14
7.282223229e-14
6.620203513e-14
5.209521278e-12
4.735928432e-12
4.305389487e-12
3.913990446e-12
3.558173125e-12
3.234702847e-12
2.940638951e-12
2.673308137e-12
2.430280121e-12
2.209345567e-12
2.008495971e-12
1.825905426e-12
1.659914026e-12
1.509012749e-12
1.371829771e-12
1.247117977e-12
1.133743612e-12
1.030676011e-12
9.369781958e-13
8.517983577e-13
7.743621423e-13
7.039655829e-13
6.399687159e-13
5.817897396e-13
5.288997628e-13
4.808179657e-13
4.371072436e-13
3.973702183e-13
3.612456577e-13
3.284051382e-13
2.985501277e-13
2.71409209e-13
2.467356384e-13
2.243051299e-13
2.039137596e-13
1.853761353e-13
1.685237651e-13
1.532034254e-13
1.392758356e-13
1.266144001e-13
1.15103996e-13
1.046399984e-13
9.51272723e-14
8.647933948e-14
7.86175798e-14
7.147052297e-14
6.497320837e-14
5.112823353e-12
4.648021228e-12
4.225473847e-12
3.841339863e-12
3.492127141e-12
3.174661043e-12
2.886055493e-12
2.623686812e-12
2.385169826e-12
2.168336208e-12
1.971214735e-12
1.792013393e-12
1.629103087e-12
1.481002804e-12
1.346366186e-12
1.223969262e-12
1.112699327e-12
1.011544842e-12
9.195862239e-13
8.359874743e-13
7.59988612e-13
6.908987371e-13
6.280897651e-13
5.709906935e-13
5.190824481e-13
4.718931342e-13
4.289937603e-13
3.899943246e-13
3.545402996e-13
3.223093582e-13
2.930085095e-13
2.663713743e-13
2.421557887e-13
2.201416302e-13
2.001287598e-13
1.819352265e-13
1.65395666e-13
1.503596989e-13
1.366906298e-13
1.24264213e-13
1.129674623e-13
1.02697695e-13
9.336154195e-14
8.487413005e-14
7.715829853e-14
7.014390371e-14
6.376719075e-14
5.017920417e-12
4.561745831e-12
4.147041668e-12
3.770037882e-12
3.427307158e-12
3.115733786e-12
2.83248526e-12
2.5749866e-12
2.340896905e-12
2.128088098e-12
1.934625544e-12
1.758750493e-12
1.598864087e-12
1.453512804e-12
1.321375276e-12
1.201250254e-12
1.092045683e-12
9.927688023e-13
9.025170965e-13
8.204700857e-13
7.458818951e-13
6.780744491e-13
6.164313214e-13
5.603921083e-13
5.094473707e-13
4.631339729e-13
4.210308864e-13
3.827553483e-13
3.47959412e-13
3.163267332e-13
2.875697595e-13
2.614270561e-13
2.376609541e-13
2.160554168e-13
1.964140202e-13
1.785581908e-13
1.623256334e-13
1.475687601e-13
1.341534129e-13
1.21957652e-13
1.108705888e-13
1.007914463e-13
9.162858857e-14
8.329871787e-14
7.572610567e-14
6.884191027e-14
6.258356025e-14
4.924778998e-12
4.477071813e-12
4.070065288e-12
3.700059356e-12
3.363690316e-12
3.057900293e-12
2.779909357e-12
2.527190324e-12
2.297445746e-12
2.088587044e-12
1.898715495e-12
1.726104994e-12
1.56918636e-12
1.426533052e-12
1.29684823e-12
1.178952938e-12
1.071775396e-12
9.743412692e-13
8.857647936e-13
8.052407195e-13
7.320370167e-13
6.65488196e-13
6.04989273e-13
5.499902463e-13
4.999911325e-13
4.545373927e-13
4.132158135e-13
3.756507366e-13
3.41500674e-13
3.104551533e-13
2.822319595e-13
2.565745106e-13
2.332495492e-13
2.120450487e-13
1.927682309e-13
1.75243837e-13
1.593125845e-13
1.448296247e-13
1.316632898e-13
1.196939037e-13
1.088126359e-13
9.892058001e-14
8.992780098e-14
8.175254732e-14
7.43204961e-14
6.756408347e-14
6.142189942e-14
4.833366454e-12
4.393969501e-12
3.994517731e-12
3.631379758e-12
3.301254319e-12
3.001140295e-12
2.728309359e-12
2.480281235e-12
2.25480112e-12
2.049819202e-12
1.863472002e-12
1.694065455e-12
1.540059507e-12
1.400054095e-12
1.27277645e-12
1.157069502e-12
1.051881363e-12
9.562557847e-13
8.69323444e-13
7.902940381e-13
7.184491246e-13
6.531355668e-13
5.9375961e-13
5.397814618e-13
4.907104193e-13
4.461003807e-13
4.055458026e-13
3.686779995e-13
3.35161822e-13
3.046925607e-13
2.769932389e-13
2.518120373e-13
2.289200281e-13
2.081091203e-13
1.891901141e-13
1.719910038e-13
1.563554632e-13
1.421413326e-13
1.29219388e-13
1.174721748e-13
1.067928823e-13
9.708444038e-14
8.825858312e-14
8.023507652e-14
7.294097722e-14
6.630997547e-14
6.028180114e-14
4.743650694e-12
4.312409719e-12
3.920372475e-12
3.56397498e-12
3.239977247e-12
2.945433867e-12
2.677667151e-12
2.434242865e-12
2.212948056e-12
2.011770962e-12
1.828882693e-12
1.662620628e-12
1.511473301e-12
1.374066635e-12
1.249151486e-12
1.135592262e-12
1.0323566e-12
9.385059999e-13
8.531872759e-13
7.756247944e-13
7.051134485e-13
6.41012225e-13
5.827383901e-13
5.29762171e-13
4.816019731e-13
4.378199751e-13
3.980181611e-13
3.618346891e-13
3.289406306e-13
2.990369323e-13
2.718517585e-13
2.471379641e-13
2.246708708e-13
2.0424625e-13
1.856784138e-13
1.687985491e-13
1.534532316e-13
1.395029401e-13
1.268208495e-13
1.152916851e-13
1.048106191e-13
9.528238287e-14
8.6620349e-14
7.874577275e-14
7.158706473e-14
6.507914601e-14
5.916286516e-14
4.655600178e-12
4.232363796e-12
3.847603454e-12
3.497821324e-12
3.179837561e-12
2.890761424e-12
2.627964931e-12
2.389059028e-12
2.17187184e-12
1.974428948e-12
1.794935408e-12
1.63175946e-12
1.483417693e-12
1.348561537e-12
1.225965033e-12
1.114513669e-12
1.013194242e-12
9.210856748e-13
8.373506167e-13
7.612278315e-13
6.920253005e-13
6.291139086e-13
5.719217388e-13
5.199288516e-13
4.726625919e-13
4.296932649e-13
3.906302427e-13
3.551183997e-13
3.228349129e-13
2.934862799e-13
2.668057108e-13
2.42550648e-13
2.205005836e-13
2.004550797e-13
1.822318952e-13
1.656653505e-13
1.506048692e-13
1.369135198e-13
1.244668311e-13
1.131516683e-13
1.028651493e-13
9.351377395e-14
8.501252269e-14
7.728411246e-14
7.025828267e-14
6.387116238e-14
5.806469814e-14
4.569184012e-12
4.153803645e-12
3.776185135e-12
3.432895579e-12
3.120814156e-12
2.837103784e-12
2.579185257e-12
2.34471387e-12
2.131558061e-12
1.937780058e-12
1.761618235e-12
1.601471121e-12
1.455882839e-12
1.323529852e-12
1.203208956e-12
1.093826326e-12
9.943875667e-13
9.03988697e-13
8.218079095e-13
7.470980977e-13
6.79180088e-13
6.174364427e-13
5.613058606e-13
5.102780533e-13
4.638891389e-13
4.217173986e-13
3.83379455e-13
3.485267746e-13
3.168425264e-13
2.880386559e-13
2.618533253e-13
2.380484794e-13
2.164077031e-13
1.967342792e-13
1.788493492e-13
1.625903089e-13
1.478093767e-13
1.343721629e-13
1.221565067e-13
1.110513734e-13
1.009557904e-13
9.177799304e-14
8.343454003e-14
7.584958275e-14
6.895416478e-14
6.268560074e-14
5.698691473e-14
4.484371942e-12
4.076701763e-12
3.706092515e-12
3.369175016e-12
3.062886371e-12
2.784442161e-12
2.531311055e-12
2.301191868e-12
2.091992604e-12
1.901811461e-12
1.72891951e-12
1.571745007e-12
1.4288591e-12
1.298962816e-12
1.180875287e-12
1.073522991e-12
9.759299892e-13
8.872090811e-13
8.065537132e-13
7.332306466e-13
6.665733142e-13
6.059757393e-13
5.508870392e-13
5.008063975e-13
4.552785428e-13
4.138895839e-13
3.762632599e-13
3.420575063e-13
3.109613734e-13
2.826921532e-13
2.569928683e-13
2.33629882e-13
2.123907965e-13
1.930825458e-13
1.755295916e-13
1.595723475e-13
1.450657754e-13
1.318779798e-13
1.198890677e-13
1.089900651e-13
9.908187381e-14
9.007443251e-14
8.188584862e-14
7.444168145e-14
6.767425453e-14
6.152204603e-14
5.592913763e-14
4.401134176e-12
4.001031067e-12
3.637300973e-12
3.30663725e-12
3.006033857e-12
2.732758057e-12
2.484325506e-12
2.258477733e-12
2.053161572e-12
1.866510522e-12
1.696827748e-12
1.542570678e-12
1.402336983e-12
1.2748518e-12
1.158956182e-12
1.053596531e-12
9.578150262e-13
8.707409329e-13
7.915826693e-13
7.196206067e-13
6.542005507e-13
5.947277725e-13
5.406616148e-13
4.915105572e-13
4.468277788e-13
4.062070712e-13
3.692791574e-13
3.357083223e-13
3.051893878e-13
2.774448937e-13
2.522226324e-13
2.292933039e-13
2.084484529e-13
1.89498597e-13
1.722714562e-13
1.566104064e-13
1.423731015e-13
1.294300945e-13
1.176637175e-13
1.069670194e-13
9.724274139e-14
8.840249391e-14
8.036590443e-14
7.305991399e-14
6.641810232e-14
6.038008954e-14
5.489099527e-14
4.319441382e-12
3.92676489e-12
3.569786267e-12
3.245260245e-12
2.95023658e-12
2.682033259e-12
2.438212054e-12
2.216556412e-12
2.015051281e-12
1.831864803e-12
1.66533164e-12
1.513937852e-12
1.376307141e-12
1.251188308e-12
1.137443916e-12
1.034039926e-12
9.40036294e-13
8.545784491e-13
7.768895022e-13
7.062631821e-13
6.420574374e-13
5.836885786e-13
5.30625984e-13
4.823872565e-13
4.385338691e-13
3.986671533e-13
3.624246865e-13
3.294769852e-13
2.995245358e-13
2.722950283e-13
2.475409365e-13
2.250372167e-13
2.045792828e-13
1.859811696e-13
1.690737948e-13
1.537034417e-13
1.397304063e-13
1.270276442e-13
1.154796718e-13
1.049815233e-13
9.543774501e-14
8.676158808e-14
7.887417184e-14
7.170379344e-14
6.518526548e-14
5.925932884e-14
5.387212182e-14
4.239264871e-12
3.853877153e-12
3.503524687e-12
3.185022445e-12
2.895474944e-12
2.632249954e-12
2.392954503e-12
2.175413185e-12
1.977648347e-12
1.797862136e-12
1.634420124e-12
1.485836474e-12
1.350760433e-12
1.227964028e-12
1.116330935e-12
1.014846306e-12
9.225875492e-13
8.387159538e-13
7.624690519e-13
6.931536818e-13
6.301397099e-13
5.728542809e-13
5.207766224e-13
4.734332914e-13
4.303939008e-13
3.912671822e-13
3.5569744e-13
3.233613066e-13
2.939648279e-13
2.672407485e-13
2.429461367e-13
2.208601259e-13
2.007819276e-13
1.825290285e-13
1.659354846e-13
1.508504326e-13
1.371367615e-13
1.246697853e-13
1.133361638e-13
1.030328796e-13
9.36662508e-14
8.515113876e-14
7.741012699e-14
7.037284355e-14
6.397531106e-14
5.815937034e-14
5.287215947e-14
4.160576689e-12
3.782342442e-12
3.438493132e-12
3.12590285e-12
2.841729857e-12
2.583390784e-12
2.348537076e-12
2.135033706e-12
1.940939729e-12
1.764490665e-12