/*--------------------------------*- C++ -*----------------------------------*\
  =========                 |
  \\      /  F ield         | OpenFOAM: The Open Source CFD Toolbox
   \\    /   O peration     | Website:  https://openfoam.org
    \\  /    A nd           | Version:  7
     \\/     M anipulation  |
\*---------------------------------------------------------------------------*/
FoamFile
{
    version     2.0;
    format      ascii;
    class       volScalarField;
    location    "constant";
    object      Cz;
}
// * * * * * * * * * * * * * * * * * * * * * * * * * * * * * * * * * * * * * //

dimensions      [0 1 0 0 0 0 0];

internalField   nonuniform List<scalar> 
15463
(
4.705110026e-05
4.705110026e-05
4.705110026e-05
4.705110026e-05
4.705110025e-05
4.705110026e-05
4.705110026e-05
4.705110026e-05
4.705110025e-05
4.705110026e-05
4.705110026e-05
4.705110026e-05
4.705110026e-05
4.705110026e-05
4.705110026e-05
4.705110026e-05
4.705110026e-05
4.705110026e-05
4.705110026e-05
4.705110025e-05
4.705110026e-05
4.705110026e-05
4.705110026e-05
4.705110026e-05
4.705110026e-05
4.705110026e-05
4.705110026e-05
4.705110026e-05
4.705110026e-05
4.705110025e-05
4.705110026e-05
4.705110026e-05
4.705110026e-05
4.705110026e-05
4.705110026e-05
4.705110026e-05
4.705110026e-05
4.705110026e-05
4.705110026e-05
4.705110026e-05
4.705110026e-05
4.705110026e-05
4.705110026e-05
4.705110025e-05
4.705110025e-05
4.705110026e-05
4.705110026e-05
0.0001405285688
0.0001405285688
0.0001405285688
0.0001405285688
0.0001405285688
0.0001405285688
0.0001405285688
0.0001405285688
0.0001405285688
0.0001405285688
0.0001405285688
0.0001405285688
0.0001405285688
0.0001405285688
0.0001405285688
0.0001405285688
0.0001405285688
0.0001405285688
0.0001405285688
0.0001405285688
0.0001405285688
0.0001405285688
0.0001405285688
0.0001405285688
0.0001405285688
0.0001405285688
0.0001405285688
0.0001405285688
0.0001405285688
0.0001405285688
0.0001405285688
0.0001405285688
0.0001405285688
0.0001405285688
0.0001405285688
0.0001405285688
0.0001405285688
0.0001405285688
0.0001405285688
0.0001405285688
0.0001405285688
0.0001405285688
0.0001405285688
0.0001405285688
0.0001405285688
0.0001405285688
0.0001405285688
0.0002327648682
0.0002327648682
0.0002327648683
0.0002327648683
0.0002327648682
0.0002327648683
0.0002327648683
0.0002327648683
0.0002327648683
0.0002327648682
0.0002327648683
0.0002327648682
0.0002327648682
0.0002327648682
0.0002327648682
0.0002327648682
0.0002327648682
0.0002327648683
0.0002327648682
0.0002327648682
0.0002327648682
0.0002327648683
0.0002327648682
0.0002327648683
0.0002327648682
0.0002327648683
0.0002327648682
0.0002327648682
0.0002327648682
0.0002327648683
0.0002327648682
0.0002327648682
0.0002327648682
0.0002327648682
0.0002327648682
0.0002327648682
0.0002327648682
0.0002327648682
0.0002327648682
0.0002327648683
0.0002327648682
0.0002327648683
0.0002327648682
0.0002327648682
0.0002327648682
0.0002327648682
0.0002327648683
0.0003237764787
0.0003237764787
0.0003237764787
0.0003237764787
0.0003237764787
0.0003237764787
0.0003237764787
0.0003237764787
0.0003237764787
0.0003237764787
0.0003237764787
0.0003237764787
0.0003237764787
0.0003237764787
0.0003237764787
0.0003237764787
0.0003237764787
0.0003237764787
0.0003237764787
0.0003237764787
0.0003237764787
0.0003237764787
0.0003237764787
0.0003237764787
0.0003237764787
0.0003237764787
0.0003237764787
0.0003237764787
0.0003237764787
0.0003237764787
0.0003237764787
0.0003237764787
0.0003237764787
0.0003237764787
0.0003237764787
0.0003237764787
0.0003237764787
0.0003237764787
0.0003237764787
0.0003237764787
0.0003237764787
0.0003237764787
0.0003237764787
0.0003237764787
0.0003237764787
0.0003237764787
0.0003237764787
0.0004135796612
0.0004135796612
0.0004135796612
0.0004135796612
0.0004135796612
0.0004135796612
0.0004135796612
0.0004135796612
0.0004135796612
0.0004135796612
0.0004135796612
0.0004135796612
0.0004135796612
0.0004135796611
0.0004135796611
0.0004135796612
0.0004135796611
0.0004135796612
0.0004135796611
0.0004135796612
0.0004135796612
0.0004135796612
0.0004135796612
0.0004135796612
0.0004135796612
0.0004135796612
0.0004135796612
0.0004135796612
0.0004135796612
0.0004135796611
0.0004135796611
0.0004135796612
0.0004135796612
0.0004135796611
0.0004135796612
0.0004135796611
0.0004135796612
0.0004135796611
0.0004135796612
0.0004135796611
0.0004135796612
0.0004135796612
0.0004135796612
0.0004135796612
0.0004135796612
0.0004135796612
0.0004135796611
0.0005021904608
0.0005021904608
0.0005021904608
0.0005021904608
0.0005021904608
0.0005021904608
0.0005021904608
0.0005021904608
0.0005021904608
0.0005021904608
0.0005021904608
0.0005021904608
0.0005021904608
0.0005021904608
0.0005021904608
0.0005021904608
0.0005021904608
0.0005021904608
0.0005021904608
0.0005021904608
0.0005021904608
0.0005021904608
0.0005021904608
0.0005021904608
0.0005021904608
0.0005021904608
0.0005021904608
0.0005021904608
0.0005021904608
0.0005021904608
0.0005021904608
0.0005021904608
0.0005021904608
0.0005021904608
0.0005021904608
0.0005021904608
0.0005021904608
0.0005021904608
0.0005021904608
0.0005021904608
0.0005021904608
0.0005021904608
0.0005021904608
0.0005021904608
0.0005021904608
0.0005021904608
0.0005021904608
0.0005896247098
0.0005896247098
0.0005896247098
0.0005896247098
0.0005896247098
0.0005896247098
0.0005896247098
0.0005896247098
0.0005896247098
0.0005896247098
0.0005896247098
0.0005896247098
0.0005896247098
0.0005896247098
0.0005896247098
0.0005896247098
0.0005896247098
0.0005896247098
0.0005896247098
0.0005896247098
0.0005896247098
0.0005896247098
0.0005896247098
0.0005896247098
0.0005896247098
0.0005896247098
0.0005896247098
0.0005896247098
0.0005896247098
0.0005896247098
0.0005896247098
0.0005896247098
0.0005896247098
0.0005896247098
0.0005896247098
0.0005896247098
0.0005896247098
0.0005896247098
0.0005896247098
0.0005896247098
0.0005896247098
0.0005896247098
0.0005896247098
0.0005896247098
0.0005896247098
0.0005896247098
0.0005896247098
0.00067589803
0.0006758980301
0.00067589803
0.00067589803
0.0006758980301
0.0006758980301
0.0006758980301
0.0006758980301
0.0006758980301
0.00067589803
0.0006758980301
0.0006758980301
0.0006758980301
0.0006758980301
0.00067589803
0.0006758980301
0.00067589803
0.0006758980301
0.0006758980301
0.0006758980301
0.00067589803
0.00067589803
0.0006758980301
0.0006758980301
0.0006758980301
0.0006758980301
0.00067589803
0.0006758980301
0.0006758980301
0.0006758980301
0.00067589803
0.0006758980301
0.0006758980301
0.0006758980301
0.0006758980301
0.0006758980301
0.00067589803
0.0006758980301
0.0006758980301
0.0006758980301
0.00067589803
0.0006758980301
0.00067589803
0.0006758980301
0.0006758980301
0.0006758980301
0.00067589803
0.0007610258361
0.0007610258361
0.0007610258361
0.0007610258361
0.0007610258361
0.0007610258361
0.0007610258361
0.0007610258361
0.0007610258361
0.0007610258361
0.0007610258361
0.0007610258361
0.0007610258361
0.0007610258361
0.0007610258361
0.0007610258361
0.0007610258361
0.0007610258361
0.0007610258361
0.0007610258361
0.0007610258361
0.0007610258361
0.0007610258361
0.0007610258361
0.0007610258361
0.0007610258361
0.0007610258361
0.0007610258361
0.0007610258361
0.0007610258361
0.0007610258361
0.0007610258361
0.0007610258361
0.0007610258361
0.0007610258361
0.0007610258361
0.0007610258361
0.0007610258361
0.0007610258361
0.0007610258361
0.0007610258361
0.0007610258361
0.0007610258361
0.0007610258361
0.0007610258361
0.0007610258361
0.0007610258361
0.0008450233377
0.0008450233377
0.0008450233378
0.0008450233377
0.0008450233378
0.0008450233377
0.0008450233378
0.0008450233378
0.0008450233377
0.0008450233378
0.0008450233378
0.0008450233378
0.0008450233377
0.0008450233377
0.0008450233377
0.0008450233378
0.0008450233377
0.0008450233378
0.0008450233378
0.0008450233378
0.0008450233377
0.0008450233378
0.0008450233378
0.0008450233377
0.0008450233377
0.0008450233377
0.0008450233378
0.0008450233378
0.0008450233378
0.0008450233378
0.0008450233378
0.0008450233377
0.0008450233377
0.0008450233377
0.0008450233378
0.0008450233378
0.0008450233377
0.0008450233377
0.0008450233377
0.0008450233378
0.0008450233377
0.0008450233378
0.0008450233378
0.0008450233378
0.0008450233378
0.0008450233378
0.0008450233377
0.0009279055429
0.0009279055429
0.0009279055429
0.0009279055429
0.0009279055429
0.0009279055429
0.0009279055429
0.0009279055429
0.0009279055429
0.0009279055429
0.0009279055429
0.0009279055429
0.0009279055429
0.0009279055429
0.0009279055429
0.0009279055429
0.0009279055429
0.0009279055429
0.0009279055429
0.0009279055429
0.0009279055429
0.0009279055429
0.0009279055429
0.0009279055429
0.0009279055429
0.0009279055429
0.0009279055429
0.0009279055429
0.0009279055429
0.0009279055429
0.0009279055429
0.0009279055429
0.0009279055429
0.0009279055429
0.0009279055429
0.0009279055429
0.0009279055429
0.0009279055429
0.0009279055429
0.0009279055429
0.0009279055429
0.0009279055429
0.0009279055429
0.0009279055429
0.0009279055429
0.0009279055429
0.0009279055429
0.00100968726
0.00100968726
0.00100968726
0.00100968726
0.00100968726
0.00100968726
0.00100968726
0.00100968726
0.00100968726
0.00100968726
0.00100968726
0.00100968726
0.00100968726
0.00100968726
0.00100968726
0.00100968726
0.00100968726
0.00100968726
0.00100968726
0.00100968726
0.00100968726
0.00100968726
0.00100968726
0.00100968726
0.00100968726
0.00100968726
0.00100968726
0.00100968726
0.00100968726
0.00100968726
0.00100968726
0.00100968726
0.00100968726
0.00100968726
0.00100968726
0.00100968726
0.00100968726
0.00100968726
0.00100968726
0.00100968726
0.00100968726
0.00100968726
0.00100968726
0.00100968726
0.00100968726
0.00100968726
0.00100968726
0.001090383101
0.001090383102
0.001090383101
0.001090383101
0.001090383102
0.001090383102
0.001090383101
0.001090383102
0.001090383101
0.001090383101
0.001090383101
0.001090383101
0.001090383102
0.001090383102
0.001090383101
0.001090383101
0.001090383101
0.001090383101
0.001090383101
0.001090383102
0.001090383102
0.001090383101
0.001090383101
0.001090383101
0.001090383102
0.001090383101
0.001090383102
0.001090383101
0.001090383101
0.001090383101
0.001090383101
0.001090383101
0.001090383102
0.001090383101
0.001090383101
0.001090383102
0.001090383102
0.001090383101
0.001090383102
0.001090383101
0.001090383102
0.001090383101
0.001090383102
0.001090383102
0.001090383101
0.001090383102
0.001090383102
0.001170007484
0.001170007485
0.001170007485
0.001170007484
0.001170007484
0.001170007484
0.001170007485
0.001170007484
0.001170007484
0.001170007484
0.001170007485
0.001170007485
0.001170007484
0.001170007484
0.001170007484
0.001170007484
0.001170007484
0.001170007484
0.001170007484
0.001170007484
0.001170007484
0.001170007484
0.001170007485
0.001170007485
0.001170007484
0.001170007484
0.001170007484
0.001170007484
0.001170007485
0.001170007484
0.001170007485
0.001170007485
0.001170007485
0.001170007485
0.001170007484
0.001170007484
0.001170007484
0.001170007484
0.001170007484
0.001170007484
0.001170007484
0.001170007485
0.001170007484
0.001170007484
0.001170007485
0.001170007484
0.001170007484
0.001248574636
0.001248574636
0.001248574636
0.001248574636
0.001248574636
0.001248574636
0.001248574636
0.001248574636
0.001248574636
0.001248574636
0.001248574636
0.001248574637
0.001248574636
0.001248574636
0.001248574636
0.001248574636
0.001248574636
0.001248574636
0.001248574636
0.001248574636
0.001248574636
0.001248574636
0.001248574636
0.001248574636
0.001248574636
0.001248574636
0.001248574636
0.001248574636
0.001248574636
0.001248574636
0.001248574636
0.001248574636
0.001248574636
0.001248574636
0.001248574636
0.001248574637
0.001248574636
0.001248574636
0.001248574637
0.001248574636
0.001248574636
0.001248574636
0.001248574636
0.001248574636
0.001248574636
0.001248574636
0.001248574636
0.001326098595
0.001326098595
0.001326098595
0.001326098595
0.001326098595
0.001326098595
0.001326098595
0.001326098595
0.001326098595
0.001326098595
0.001326098595
0.001326098595
0.001326098595
0.001326098595
0.001326098595
0.001326098595
0.001326098595
0.001326098595
0.001326098595
0.001326098595
0.001326098595
0.001326098595
0.001326098595
0.001326098595
0.001326098595
0.001326098595
0.001326098595
0.001326098595
0.001326098595
0.001326098595
0.001326098595
0.001326098595
0.001326098595
0.001326098595
0.001326098595
0.001326098595
0.001326098595
0.001326098595
0.001326098595
0.001326098595
0.001326098595
0.001326098595
0.001326098595
0.001326098595
0.001326098595
0.001326098595
0.001326098595
0.001402593211
0.001402593211
0.001402593211
0.001402593211
0.001402593211
0.001402593211
0.001402593211
0.001402593211
0.001402593211
0.001402593211
0.001402593211
0.001402593211
0.001402593211
0.001402593211
0.001402593211
0.001402593211
0.001402593211
0.001402593211
0.001402593211
0.001402593211
0.001402593211
0.001402593211
0.001402593211
0.001402593211
0.001402593211
0.001402593211
0.001402593211
0.001402593211
0.001402593211
0.001402593211
0.001402593211
0.001402593211
0.001402593211
0.001402593211
0.001402593211
0.001402593211
0.001402593211
0.001402593211
0.001402593211
0.001402593211
0.001402593211
0.001402593211
0.001402593211
0.001402593211
0.001402593211
0.001402593211
0.001402593211
0.001478072152
0.001478072151
0.001478072152
0.001478072151
0.001478072151
0.001478072152
0.001478072151
0.001478072152
0.001478072151
0.001478072151
0.001478072152
0.001478072151
0.001478072151
0.001478072151
0.001478072152
0.001478072152
0.001478072151
0.001478072151
0.001478072151
0.001478072151
0.001478072151
0.001478072152
0.001478072151
0.001478072151
0.001478072151
0.001478072151
0.001478072151
0.001478072152
0.001478072152
0.001478072151
0.001478072152
0.001478072151
0.001478072151
0.001478072152
0.001478072151
0.001478072151
0.001478072151
0.001478072151
0.001478072152
0.001478072151
0.001478072152
0.001478072152
0.001478072151
0.001478072152
0.001478072152
0.001478072151
0.001478072151
0.001552548903
0.001552548902
0.001552548903
0.001552548903
0.001552548902
0.001552548902
0.001552548903
0.001552548902
0.001552548903
0.001552548902
0.001552548902
0.001552548903
0.001552548903
0.001552548903
0.001552548903
0.001552548903
0.001552548902
0.001552548903
0.001552548902
0.001552548903
0.001552548903
0.001552548902
0.001552548902
0.001552548903
0.001552548903
0.001552548902
0.001552548902
0.001552548903
0.001552548902
0.001552548903
0.001552548903
0.001552548902
0.001552548903
0.001552548903
0.001552548902
0.001552548903
0.001552548903
0.001552548903
0.001552548903
0.001552548902
0.001552548903
0.001552548903
0.001552548902
0.001552548902
0.001552548903
0.001552548902
0.001552548903
0.001626036771
0.001626036771
0.001626036771
0.001626036771
0.001626036771
0.001626036771
0.001626036771
0.001626036771
0.001626036771
0.001626036771
0.001626036771
0.001626036771
0.001626036771
0.001626036771
0.001626036771
0.001626036771
0.001626036771
0.001626036771
0.001626036771
0.001626036771
0.001626036771
0.001626036771
0.001626036771
0.001626036771
0.001626036771
0.001626036771
0.001626036771
0.001626036771
0.001626036771
0.001626036771
0.001626036771
0.001626036771
0.001626036771
0.001626036771
0.001626036771
0.001626036771
0.001626036771
0.001626036771
0.001626036771
0.001626036771
0.001626036771
0.001626036771
0.001626036771
0.001626036771
0.001626036771
0.001626036771
0.001626036771
0.001698548887
0.001698548887
0.001698548888
0.001698548887
0.001698548887
0.001698548888
0.001698548887
0.001698548887
0.001698548888
0.001698548887
0.001698548887
0.001698548888
0.001698548888
0.001698548888
0.001698548888
0.001698548888
0.001698548887
0.001698548887
0.001698548888
0.001698548888
0.001698548887
0.001698548887
0.001698548888
0.001698548887
0.001698548888
0.001698548887
0.001698548887
0.001698548888
0.001698548887
0.001698548888
0.001698548887
0.001698548888
0.001698548887
0.001698548887
0.001698548887
0.001698548887
0.001698548888
0.001698548887
0.001698548887
0.001698548887
0.001698548888
0.001698548887
0.001698548887
0.001698548887
0.001698548888
0.001698548887
0.001698548887
0.001770098207
0.001770098207
0.001770098207
0.001770098207
0.001770098207
0.001770098207
0.001770098207
0.001770098207
0.001770098207
0.001770098207
0.001770098207
0.001770098207
0.001770098207
0.001770098207
0.001770098207
0.001770098207
0.001770098207
0.001770098207
0.001770098207
0.001770098207
0.001770098207
0.001770098207
0.001770098207
0.001770098207
0.001770098207
0.001770098207
0.001770098207
0.001770098207
0.001770098207
0.001770098207
0.001770098207
0.001770098207
0.001770098207
0.001770098207
0.001770098207
0.001770098207
0.001770098207
0.001770098207
0.001770098207
0.001770098207
0.001770098207
0.001770098207
0.001770098207
0.001770098207
0.001770098207
0.001770098207
0.001770098207
0.001840697514
0.001840697513
0.001840697513
0.001840697513
0.001840697513
0.001840697514
0.001840697513
0.001840697513
0.001840697513
0.001840697513
0.001840697513
0.001840697513
0.001840697513
0.001840697513
0.001840697513
0.001840697513
0.001840697513
0.001840697513
0.001840697513
0.001840697513
0.001840697513
0.001840697513
0.001840697514
0.001840697514
0.001840697513
0.001840697513
0.001840697513
0.001840697513
0.001840697513
0.001840697513
0.001840697513
0.001840697513
0.001840697513
0.001840697513
0.001840697514
0.001840697514
0.001840697513
0.001840697514
0.001840697513
0.001840697513
0.001840697513
0.001840697514
0.001840697514
0.001840697513
0.001840697513
0.001840697513
0.001840697514
0.001910359421
0.001910359422
0.001910359421
0.001910359421
0.001910359422
0.001910359421
0.001910359422
0.001910359422
0.001910359421
0.001910359422
0.001910359422
0.001910359422
0.001910359421
0.001910359421
0.001910359421
0.001910359421
0.001910359421
0.001910359422
0.001910359422
0.001910359422
0.001910359421
0.001910359422
0.001910359422
0.001910359421
0.001910359422
0.001910359422
0.001910359421
0.001910359421
0.001910359421
0.001910359422
0.001910359422
0.001910359421
0.001910359422
0.001910359422
0.001910359422
0.001910359421
0.001910359421
0.001910359421
0.001910359422
0.001910359421
0.001910359422
0.001910359421
0.001910359422
0.001910359421
0.001910359421
0.001910359421
0.001910359421
0.001979096378
0.001979096378
0.001979096377
0.001979096377
0.001979096378
0.001979096378
0.001979096378
0.001979096378
0.001979096377
0.001979096378
0.001979096378
0.001979096377
0.001979096377
0.001979096378
0.001979096378
0.001979096378
0.001979096378
0.001979096378
0.001979096378
0.001979096378
0.001979096377
0.001979096378
0.001979096378
0.001979096378
0.001979096378
0.001979096378
0.001979096378
0.001979096378
0.001979096378
0.001979096378
0.001979096378
0.001979096378
0.001979096378
0.001979096378
0.001979096378
0.001979096378
0.001979096378
0.001979096378
0.001979096378
0.001979096377
0.001979096378
0.001979096378
0.001979096378
0.001979096378
0.001979096378
0.001979096378
0.001979096378
0.002046920663
0.002046920662
0.002046920662
0.002046920662
0.002046920662
0.002046920662
0.002046920662
0.002046920662
0.002046920662
0.002046920662
0.002046920662
0.002046920662
0.002046920662
0.002046920662
0.002046920662
0.002046920662
0.002046920663
0.002046920663
0.002046920662
0.002046920662
0.002046920662
0.002046920662
0.002046920662
0.002046920662
0.002046920662
0.002046920662
0.002046920662
0.002046920662
0.002046920662
0.002046920663
0.002046920663
0.002046920662
0.002046920662
0.002046920662
0.002046920662
0.002046920663
0.002046920662
0.002046920662
0.002046920662
0.002046920662
0.002046920663
0.002046920662
0.002046920662
0.002046920663
0.002046920662
0.002046920662
0.002046920663
0.002113844394
0.002113844394
0.002113844394
0.002113844394
0.002113844394
0.002113844394
0.002113844394
0.002113844394
0.002113844394
0.002113844394
0.002113844394
0.002113844394
0.002113844394
0.002113844394
0.002113844394
0.002113844394
0.002113844394
0.002113844394
0.002113844394
0.002113844394
0.002113844394
0.002113844394
0.002113844394
0.002113844394
0.002113844394
0.002113844394
0.002113844394
0.002113844394
0.002113844394
0.002113844394
0.002113844394
0.002113844394
0.002113844394
0.002113844394
0.002113844394
0.002113844394
0.002113844394
0.002113844394
0.002113844394
0.002113844394
0.002113844394
0.002113844394
0.002113844394
0.002113844394
0.002113844394
0.002113844394
0.002113844394
0.00217987953
0.00217987953
0.00217987953
0.00217987953
0.00217987953
0.00217987953
0.00217987953
0.00217987953
0.00217987953
0.00217987953
0.00217987953
0.00217987953
0.00217987953
0.00217987953
0.00217987953
0.00217987953
0.00217987953
0.00217987953
0.00217987953
0.00217987953
0.00217987953
0.00217987953
0.00217987953
0.00217987953
0.00217987953
0.00217987953
0.00217987953
0.00217987953
0.00217987953
0.00217987953
0.00217987953
0.00217987953
0.00217987953
0.00217987953
0.00217987953
0.00217987953
0.00217987953
0.00217987953
0.00217987953
0.00217987953
0.00217987953
0.00217987953
0.00217987953
0.00217987953
0.00217987953
0.00217987953
0.00217987953
0.002245037869
0.002245037869
0.002245037869
0.002245037869
0.002245037869
0.002245037869
0.002245037869
0.00224503787
0.002245037869
0.002245037869
0.002245037869
0.002245037869
0.002245037869
0.002245037869
0.00224503787
0.002245037869
0.002245037869
0.002245037869
0.002245037869
0.002245037869
0.002245037869
0.002245037869
0.002245037869
0.002245037869
0.002245037869
0.002245037869
0.002245037869
0.002245037869
0.002245037869
0.002245037869
0.002245037869
0.002245037869
0.002245037869
0.002245037869
0.002245037869
0.002245037869
0.002245037869
0.002245037869
0.002245037869
0.002245037869
0.002245037869
0.002245037869
0.002245037869
0.002245037869
0.002245037869
0.002245037869
0.002245037869
0.002309331054
0.002309331054
0.002309331054
0.002309331054
0.002309331054
0.002309331054
0.002309331054
0.002309331054
0.002309331054
0.002309331054
0.002309331054
0.002309331054
0.002309331054
0.002309331054
0.002309331054
0.002309331054
0.002309331054
0.002309331054
0.002309331054
0.002309331054
0.002309331054
0.002309331054
0.002309331054
0.002309331054
0.002309331054
0.002309331054
0.002309331054
0.002309331054
0.002309331054
0.002309331054
0.002309331054
0.002309331054
0.002309331054
0.002309331054
0.002309331054
0.002309331054
0.002309331054
0.002309331054
0.002309331054
0.002309331054
0.002309331054
0.002309331054
0.002309331054
0.002309331054
0.002309331054
0.002309331054
0.002309331054
0.002372770571
0.00237277057
0.00237277057
0.00237277057
0.00237277057
0.00237277057
0.00237277057
0.00237277057
0.00237277057
0.00237277057
0.00237277057
0.00237277057
0.00237277057
0.00237277057
0.00237277057
0.00237277057
0.00237277057
0.00237277057
0.00237277057
0.00237277057
0.00237277057
0.00237277057
0.00237277057
0.00237277057
0.00237277057
0.00237277057
0.00237277057
0.00237277057
0.00237277057
0.00237277057
0.00237277057
0.00237277057
0.00237277057
0.00237277057
0.00237277057
0.00237277057
0.00237277057
0.00237277057
0.00237277057
0.00237277057
0.00237277057
0.00237277057
0.00237277057
0.00237277057
0.002372770571
0.00237277057
0.00237277057
0.002435367753
0.002435367753
0.002435367753
0.002435367754
0.002435367753
0.002435367754
0.002435367753
0.002435367754
0.002435367754
0.002435367754
0.002435367754
0.002435367754
0.002435367754
0.002435367754
0.002435367754
0.002435367754
0.002435367754
0.002435367753
0.002435367753
0.002435367753
0.002435367754
0.002435367754
0.002435367753
0.002435367753
0.002435367754
0.002435367753
0.002435367754
0.002435367753
0.002435367753
0.002435367753
0.002435367753
0.002435367754
0.002435367754
0.002435367754
0.002435367753
0.002435367754
0.002435367754
0.002435367753
0.002435367753
0.002435367753
0.002435367754
0.002435367753
0.002435367753
0.002435367754
0.002435367754
0.002435367754
0.002435367753
0.002497133788
0.002497133788
0.002497133788
0.002497133788
0.002497133788
0.002497133788
0.002497133788
0.002497133788
0.002497133788
0.002497133788
0.002497133788
0.002497133788
0.002497133788
0.002497133788
0.002497133788
0.002497133788
0.002497133788
0.002497133788
0.002497133788
0.002497133788
0.002497133788
0.002497133788
0.002497133788
0.002497133788
0.002497133788
0.002497133788
0.002497133788
0.002497133788
0.002497133788
0.002497133788
0.002497133788
0.002497133788
0.002497133788
0.002497133788
0.002497133788
0.002497133788
0.002497133788
0.002497133788
0.002497133788
0.002497133788
0.002497133788
0.002497133788
0.002497133788
0.002497133788
0.002497133788
0.002497133788
0.002497133788
0.002558079709
0.002558079709
0.002558079709
0.002558079709
0.002558079709
0.002558079709
0.002558079709
0.002558079709
0.002558079709
0.002558079709
0.002558079709
0.002558079709
0.002558079709
0.002558079709
0.002558079709
0.002558079709
0.002558079709
0.002558079709
0.002558079709
0.002558079709
0.002558079709
0.00255807971
0.00255807971
0.002558079709
0.002558079709
0.002558079709
0.002558079709
0.002558079709
0.00255807971
0.002558079709
0.002558079709
0.002558079709
0.002558079709
0.002558079709
0.002558079709
0.002558079709
0.002558079709
0.002558079709
0.002558079709
0.002558079709
0.00255807971
0.002558079709
0.002558079709
0.002558079709
0.002558079709
0.002558079709
0.002558079709
0.002618216407
0.002618216407
0.002618216407
0.002618216407
0.002618216407
0.002618216407
0.002618216407
0.002618216407
0.002618216407
0.002618216407
0.002618216407
0.002618216407
0.002618216407
0.002618216407
0.002618216407
0.002618216407
0.002618216407
0.002618216407
0.002618216407
0.002618216407
0.002618216407
0.002618216407
0.002618216407
0.002618216407
0.002618216407
0.002618216407
0.002618216407
0.002618216407
0.002618216407
0.002618216407
0.002618216407
0.002618216407
0.002618216407
0.002618216407
0.002618216407
0.002618216407
0.002618216407
0.002618216407
0.002618216407
0.002618216407
0.002618216407
0.002618216407
0.002618216407
0.002618216407
0.002618216407
0.002618216407
0.002618216407
0.002677554626
0.002677554626
0.002677554626
0.002677554626
0.002677554626
0.002677554626
0.002677554626
0.002677554626
0.002677554626
0.002677554626
0.002677554626
0.002677554626
0.002677554626
0.002677554626
0.002677554626
0.002677554626
0.002677554626
0.002677554626
0.002677554626
0.002677554626
0.002677554626
0.002677554626
0.002677554626
0.002677554626
0.002677554626
0.002677554626
0.002677554626
0.002677554626
0.002677554626
0.002677554626
0.002677554626
0.002677554626
0.002677554626
0.002677554626
0.002677554626
0.002677554626
0.002677554626
0.002677554626
0.002677554626
0.002677554626
0.002677554626
0.002677554626
0.002677554626
0.002677554626
0.002677554626
0.002677554626
0.002677554626
0.002736104967
0.002736104967
0.002736104967
0.002736104967
0.002736104968
0.002736104967
0.002736104967
0.002736104967
0.002736104968
0.002736104967
0.002736104967
0.002736104967
0.002736104967
0.002736104967
0.002736104967
0.002736104967
0.002736104967
0.002736104967
0.002736104967
0.002736104967
0.002736104967
0.002736104967
0.002736104967
0.002736104967
0.002736104967
0.002736104967
0.002736104968
0.002736104967
0.002736104967
0.002736104967
0.002736104968
0.002736104968
0.002736104967
0.002736104967
0.002736104968
0.002736104967
0.002736104967
0.002736104967
0.002736104967
0.002736104967
0.002736104967
0.002736104967
0.002736104967
0.002736104968
0.002736104967
0.002736104967
0.002736104967
0.002793877893
0.002793877893
0.002793877893
0.002793877893
0.002793877893
0.002793877893
0.002793877893
0.002793877893
0.002793877893
0.002793877893
0.002793877893
0.002793877893
0.002793877893
0.002793877893
0.002793877893
0.002793877893
0.002793877893
0.002793877893
0.002793877893
0.002793877893
0.002793877893
0.002793877893
0.002793877893
0.002793877893
0.002793877893
0.002793877893
0.002793877893
0.002793877893
0.002793877893
0.002793877893
0.002793877893
0.002793877893
0.002793877893
0.002793877893
0.002793877893
0.002793877893
0.002793877893
0.002793877893
0.002793877893
0.002793877893
0.002793877893
0.002793877893
0.002793877893
0.002793877893
0.002793877893
0.002793877893
0.002793877893
0.002850883726
0.002850883725
0.002850883725
0.002850883726
0.002850883725
0.002850883725
0.002850883725
0.002850883725
0.002850883725
0.002850883725
0.002850883725
0.002850883726
0.002850883725
0.002850883725
0.002850883726
0.002850883725
0.002850883725
0.002850883725
0.002850883726
0.002850883725
0.002850883725
0.002850883726
0.002850883726
0.002850883726
0.002850883725
0.002850883726
0.002850883725
0.002850883725
0.002850883725
0.002850883725
0.002850883726
0.002850883726
0.002850883725
0.002850883726
0.002850883725
0.002850883726
0.002850883725
0.002850883726
0.002850883725
0.002850883725
0.002850883726
0.002850883725
0.002850883726
0.002850883726
0.002850883725
0.002850883726
0.002850883725
0.002907132649
0.002907132649
0.002907132649
0.00290713265
0.002907132649
0.002907132649
0.002907132649
0.002907132649
0.002907132649
0.00290713265
0.002907132649
0.002907132649
0.00290713265
0.00290713265
0.002907132649
0.002907132649
0.002907132649
0.002907132649
0.002907132649
0.002907132649
0.002907132649
0.002907132649
0.002907132649
0.002907132649
0.002907132649
0.00290713265
0.002907132649
0.00290713265
0.002907132649
0.00290713265
0.002907132649
0.00290713265
0.00290713265
0.002907132649
0.002907132649
0.00290713265
0.002907132649
0.002907132649
0.002907132649
0.002907132649
0.002907132649
0.002907132649
0.002907132649
0.002907132649
0.002907132649
0.002907132649
0.002907132649
0.002962634715
0.002962634715
0.002962634715
0.002962634715
0.002962634715
0.002962634715
0.002962634715
0.002962634715
0.002962634715
0.002962634715
0.002962634715
0.002962634715
0.002962634715
0.002962634715
0.002962634715
0.002962634715
0.002962634715
0.002962634715
0.002962634715
0.002962634715
0.002962634715
0.002962634715
0.002962634715
0.002962634715
0.002962634715
0.002962634715
0.002962634715
0.002962634715
0.002962634715
0.002962634715
0.002962634715
0.002962634715
0.002962634715
0.002962634715
0.002962634715
0.002962634715
0.002962634715
0.002962634715
0.002962634715
0.002962634715
0.002962634715
0.002962634715
0.002962634715
0.002962634715
0.002962634715
0.002962634715
0.002962634715
0.003017399839
0.003017399839
0.003017399839
0.003017399839