/*--------------------------------*- C++ -*----------------------------------*\
  =========                 |
  \\      /  F ield         | OpenFOAM: The Open Source CFD Toolbox
   \\    /   O peration     | Website:  https://openfoam.org
    \\  /    A nd           | Version:  7
     \\/     M anipulation  |
\*---------------------------------------------------------------------------*/
FoamFile
{
    version     2.0;
    format      ascii;
    class       volScalarField;
    location    "constant";
    object      V;
}
// * * * * * * * * * * * * * * * * * * * * * * * * * * * * * * * * * * * * * //

dimensions      [0 3 0 0 0 0 0];

internalField   nonuniform List<scalar> 
15463
(
8.65285321e-12
7.866230186e-12
7.151118357e-12
6.501016692e-12
5.910015162e-12
5.372741067e-12
4.88431006e-12
4.440281873e-12
4.036619878e-12
3.669654439e-12
3.336049491e-12
3.032772261e-12
2.757065696e-12
2.506423356e-12
2.278566687e-12
2.071424265e-12
1.883112964e-12
1.711920876e-12
1.556291712e-12
1.414810644e-12
1.286191493e-12
1.169264992e-12
1.062968181e-12
9.663347066e-13
8.78486096e-13
7.986237228e-13
7.260215696e-13
6.600196036e-13
6.000178292e-13
5.454707452e-13
4.958824991e-13
4.508022753e-13
4.0982024e-13
3.725638614e-13
3.38694428e-13
3.079040092e-13
2.799127451e-13
2.544661362e-13
2.313328416e-13
2.103025901e-13
1.91184166e-13
1.738037907e-13
1.580034478e-13
1.436394997e-13
1.305813608e-13
1.187103212e-13
1.079184832e-13
8.537962923e-12
7.761784471e-12
7.056167707e-12
6.41469792e-12
5.831543551e-12
5.301403238e-12
4.819457488e-12
4.381324989e-12
3.983022712e-12
3.620929742e-12
3.291754312e-12
2.992503917e-12
2.72045811e-12
2.473143732e-12
2.248312484e-12
2.043920444e-12
1.85810949e-12
1.689190446e-12
1.535627684e-12
1.396025164e-12
1.269113784e-12
1.153739802e-12
1.048854372e-12
9.535039711e-13
8.66821791e-13
7.880198092e-13
7.163816481e-13
6.512560386e-13
5.920509518e-13
5.382281296e-13
4.89298303e-13
4.448166425e-13
4.043787557e-13
3.676170574e-13
3.341973334e-13
3.038157416e-13
2.76196138e-13
2.510874024e-13
2.282612656e-13
2.075102482e-13
1.886456735e-13
1.714960702e-13
1.5590552e-13
1.417322926e-13
1.288475362e-13
1.171341171e-13
1.064855703e-13
8.424598118e-12
7.658725557e-12
6.962477785e-12
6.329525263e-12
5.754113863e-12
5.231012613e-12
4.755466011e-12
4.323150919e-12
3.930137193e-12
3.572851998e-12
3.248047272e-12
2.952770244e-12
2.684336589e-12
2.440305986e-12
2.218459988e-12
2.016781811e-12
1.833438006e-12
1.666761823e-12
1.515238027e-12
1.377489112e-12
1.252262828e-12
1.138420751e-12
1.034927962e-12
9.408435984e-13
8.553123614e-13
7.775566913e-13
7.068697227e-13
6.426088338e-13
5.841898564e-13
5.310816793e-13
4.8280153e-13
4.389104851e-13
3.99009522e-13
3.627359357e-13
3.297599499e-13
2.997817568e-13
2.72528879e-13
2.477535305e-13
2.252304731e-13
2.047549822e-13
1.861408863e-13
1.692189908e-13
1.538354479e-13
1.398504088e-13
1.271367328e-13
1.155788413e-13
1.050716831e-13
8.312738551e-12
7.557035042e-12
6.870031862e-12
6.245483515e-12
5.677712274e-12
5.161556623e-12
4.692324202e-12
4.265749274e-12
3.87795388e-12
3.525412622e-12
3.204920566e-12
2.913564148e-12
2.648694684e-12
2.407904254e-12
2.189003867e-12
1.99000352e-12
1.809094105e-12
1.644631004e-12
1.495119101e-12
1.359199179e-12
1.235635616e-12
1.123305104e-12
1.021186464e-12
9.28351328e-13
8.439557519e-13
7.672325009e-13
6.97484095e-13
6.340764451e-13
5.764331393e-13
5.240301184e-13
4.7639102e-13
4.330827488e-13
3.937115799e-13
3.579196247e-13
3.253814852e-13
2.958013346e-13
2.689103132e-13
2.444639252e-13
2.22239923e-13
2.020363002e-13
1.836693572e-13
1.669721462e-13
1.517928618e-13
1.379935124e-13
1.254486452e-13
1.140442163e-13
1.036765693e-13
8.202364205e-12
7.456694728e-12
6.778813395e-12
6.162557636e-12
5.602325111e-12
5.093022838e-12
4.630020761e-12
4.209109783e-12
3.826463433e-12
3.478603125e-12
3.162366478e-12
2.874878613e-12
2.613526016e-12
2.375932738e-12
2.159938853e-12
1.963580779e-12
1.785073432e-12
1.622794029e-12
1.475267304e-12
1.341152092e-12
1.219229173e-12
1.108390155e-12
1.00762742e-12
9.160249244e-13
8.327499305e-13
7.570453906e-13
6.882230856e-13
6.256573456e-13
5.687794124e-13
5.17072185e-13
4.70065626e-13
4.273323905e-13
3.884839816e-13
3.531672625e-13
3.210611559e-13
2.918737626e-13
2.653397931e-13
2.412179978e-13
2.1928908e-13
1.993537156e-13
1.81230644e-13
1.647551342e-13
1.497773963e-13
1.36161271e-13
1.237829712e-13
1.125299674e-13
1.022999792e-13
8.093455404e-12
7.357686726e-12
6.688806121e-12
6.080732841e-12
5.527938934e-12
5.025399041e-12
4.568544582e-12
4.153222347e-12
3.775656673e-12
3.432415162e-12
3.120377421e-12
2.836706743e-12
2.578824316e-12
2.344385737e-12
2.131259761e-12
1.937508878e-12
1.761371703e-12
1.601247003e-12
1.455679099e-12
1.323344632e-12
1.203040573e-12
1.093673247e-12
9.942484126e-13
9.038621901e-13
8.216928993e-13
7.46993544e-13
6.790850432e-13
6.173500345e-13
5.612273113e-13
5.102066386e-13
4.638242201e-13
4.216583851e-13
3.833257951e-13
3.484780019e-13
3.167981916e-13
2.879983408e-13
2.618166822e-13
2.380151697e-13
2.163774182e-13
1.967067502e-13
1.788243119e-13
1.625675595e-13
1.477886921e-13
1.34353358e-13
1.22139414e-13
1.110358245e-13
1.009416674e-13
7.985992643e-12
7.259993308e-12
6.599993922e-12
5.999994478e-12
5.454540423e-12
4.958673121e-12
4.507884655e-12
4.098076959e-12
3.725524503e-12
3.386840461e-12
3.078945874e-12
2.799041701e-12
2.544583368e-12
2.313257604e-12
2.102961458e-12
1.911783147e-12
1.737984675e-12
1.579986069e-12
1.436350977e-12
1.305773612e-12
1.187066919e-12
1.079151743e-12
9.810470451e-13
8.91860947e-13
8.107826783e-13
7.370751613e-13
6.700683316e-13
6.09153024e-13
5.537754834e-13
5.034322498e-13
4.576656848e-13
4.160597166e-13
3.782360965e-13
3.438510032e-13
3.125918289e-13
2.841743749e-13
2.583403495e-13
2.348548672e-13
2.13504416e-13
1.9409493e-13
1.7644993e-13
1.604090304e-13
1.458263929e-13
1.325694497e-13
1.205176791e-13
1.095615202e-13
9.960139067e-14
7.879956761e-12
7.163597051e-12
6.512360961e-12
5.92032815e-12
5.382116489e-12
4.892833181e-12
4.448030164e-12
4.043663785e-12
3.676057981e-12
3.341870896e-12
3.038064451e-12
2.761876771e-12
2.510797068e-12
2.282542785e-12
2.075038896e-12
1.886399e-12
1.714908178e-12
1.559007435e-12
1.417279491e-12
1.288435898e-12
1.17130536e-12
1.064823053e-12
9.680209639e-13
8.800190549e-13
8.000173219e-13
7.272884737e-13
6.611713428e-13
6.010648524e-13
5.464226001e-13
4.967478105e-13
4.515889218e-13
4.105353865e-13
3.732139784e-13
3.392854412e-13
3.084413179e-13
2.804011833e-13
2.549101752e-13
2.317365268e-13
2.106695613e-13
1.915177892e-13
1.741070749e-13
1.582791621e-13
1.438901489e-13
1.308092278e-13
1.189174775e-13
1.081067915e-13
9.827890994e-14
7.775328787e-12
7.068480711e-12
6.425891561e-12
5.841719605e-12
5.310654175e-12
4.827867441e-12
4.3889704e-12
3.989973091e-12
3.627248259e-12
3.297498421e-12
2.997725838e-12
2.725205304e-12
2.477459371e-12
2.252235788e-12
2.04748708e-12
1.861351895e-12
1.692138083e-12
1.538307348e-12
1.398461231e-12
1.271328388e-12
1.155753079e-12
1.050684616e-12
9.551678385e-13
8.683343956e-13
7.893949043e-13
7.176317304e-13
6.523924853e-13
5.930840729e-13
5.391673459e-13
4.90152125e-13
4.45592844e-13
4.050844067e-13
3.682585423e-13
3.347804991e-13
3.04345916e-13
2.766780908e-13
2.515255456e-13
2.286595907e-13
2.078723468e-13
1.889748668e-13
1.717953273e-13
1.561775734e-13
1.419796137e-13
1.290723776e-13
1.173385228e-13
1.066713782e-13
9.697398867e-14
7.672090037e-12
6.974627302e-12
6.34057028e-12
5.764154804e-12
5.240140719e-12
4.7637643e-12
4.330694817e-12
3.936995288e-12
3.57908662e-12
3.253715113e-12
2.957922831e-12
2.689020752e-12
2.444564324e-12
2.2223312e-12
2.020301091e-12
1.836637359e-12
1.669670323e-12
1.517882112e-12
1.379892834e-12
1.254448028e-12
1.140407297e-12
1.036733904e-12
9.424853737e-13
8.568048822e-13
7.789135285e-13
7.08103207e-13
6.437301912e-13
5.852092602e-13
5.320084251e-13
4.836440153e-13
4.396763806e-13
3.997058035e-13
3.633689032e-13
3.303353726e-13
3.003048918e-13
2.730044327e-13
2.481858562e-13
2.256235094e-13
2.05112273e-13
1.864657088e-13
1.695142746e-13
1.541038891e-13
1.400944461e-13
1.273585889e-13
1.157805331e-13
1.05255024e-13
9.568639381e-14
7.570222066e-12
6.882020056e-12
6.256381874e-12
5.687619889e-12
5.170563525e-12
4.700512304e-12
4.273193003e-12
3.884720912e-12
3.53156446e-12
3.210513149e-12
2.918648318e-12
2.65331665e-12
2.412106049e-12
2.192823677e-12
1.99347607e-12
1.812250977e-12
1.647500884e-12
1.497728076e-12
1.361570984e-12
1.237791801e-12
1.125265272e-12
1.022968427e-12
9.299713036e-13
8.454284548e-13
7.685713218e-13
6.987012009e-13
6.351829129e-13
5.774390072e-13
5.249445588e-13
4.772223187e-13
4.338384745e-13
3.943986162e-13
3.585441875e-13
3.259492674e-13
2.963175233e-13
2.693795524e-13
2.448905104e-13
2.226277405e-13
2.023888468e-13
1.839898667e-13
1.672635092e-13
1.520577386e-13
1.382343093e-13
1.256675554e-13
1.1424323e-13
1.038574758e-13
9.441589532e-14
7.469706712e-12
6.790642462e-12
6.173311334e-12
5.612101217e-12
5.101910186e-12
4.638100178e-12
4.216454706e-12
3.833140642e-12
3.484673306e-12
3.167884827e-12
2.879895298e-12
2.618086632e-12
2.38007876e-12
2.16370796e-12
1.967007236e-12
1.7881884e-12
1.625625815e-12
1.47784165e-12
1.343492414e-12
1.221356737e-12
1.110324305e-12
1.00938573e-12
9.176233971e-13
8.342030853e-13
7.583664404e-13
6.89424036e-13
6.267491266e-13
5.697719289e-13
5.179744874e-13
4.708858903e-13
4.28078085e-13
3.891618984e-13
3.537835352e-13
3.216214015e-13
2.923830997e-13
2.658028038e-13
2.416389207e-13
2.196717498e-13
1.997015826e-13
1.815468992e-13
1.650426297e-13
1.500387572e-13
1.363988717e-13
1.239989757e-13
1.127263394e-13
1.024784844e-13
9.316226669e-14
7.370525798e-12
6.700477995e-12
6.091343637e-12
5.537585128e-12
5.034168287e-12
4.576516633e-12
4.160469666e-12
3.782245151e-12
3.438404678e-12
3.125822438e-12
2.841656762e-12
2.583324326e-12
2.348476664e-12
2.134978782e-12
1.940889802e-12
1.764445278e-12
1.604041158e-12
1.458219235e-12
1.325653855e-12
1.205139865e-12
1.095581694e-12
9.959833568e-13
9.054394211e-13
8.231267435e-13
7.482970388e-13
6.802700346e-13
6.184273071e-13
5.622066384e-13
5.110969506e-13
4.646335842e-13
4.223941703e-13
3.839947032e-13
3.490860851e-13
3.173509923e-13
2.885009093e-13
2.622735401e-13
2.38430499e-13
2.167550028e-13
1.970499945e-13
1.791363645e-13
1.628512346e-13
1.480465798e-13
1.345878013e-13
1.223525481e-13
1.11229587e-13
1.011178005e-13
9.192528121e-14
7.272662018e-12
6.611510922e-12
6.010464479e-12
5.464058621e-12
4.967326009e-12
4.515750926e-12
4.105228113e-12
3.732025558e-12
3.392750502e-12
3.084318642e-12
2.803926039e-12
2.549023669e-12
2.317294248e-12
2.106631131e-12
1.91511921e-12
1.741017467e-12
1.582743148e-12
1.438857407e-12
1.308052194e-12
1.189138355e-12
1.081034867e-12
9.827589683e-13
8.934172497e-13
8.121974968e-13
7.3836136e-13
6.712375993e-13
6.102160023e-13
5.547418159e-13
5.043107482e-13
4.584643094e-13
4.167857387e-13
3.788961289e-13
3.444510177e-13
3.131372946e-13
2.84670275e-13
2.587911454e-13
2.352646855e-13
2.138769905e-13
1.944336198e-13
1.767578419e-13
1.606889414e-13
1.460808587e-13
1.328007821e-13
1.207279852e-13
1.097527116e-13
9.977518664e-14
9.070472304e-14
7.176097515e-12
6.52372501e-12
5.930659105e-12
5.391508281e-12
4.901371154e-12
4.455791966e-12
4.050719969e-12
3.682472699e-12
3.347702449e-12
3.043365866e-12
2.766696242e-12
2.515178399e-12
2.286525821e-12
2.078659834e-12
1.889690758e-12
1.717900693e-12
1.561727899e-12
1.419752635e-12
1.290684219e-12
1.173349287e-12
1.066681169e-12
9.697101519e-13
8.815546892e-13
8.01413351e-13
7.285575911e-13
6.623250821e-13
6.021137139e-13
5.473760993e-13
4.976146421e-13
4.523769402e-13
4.112517667e-13
3.738652453e-13
3.398774872e-13
3.089795395e-13
2.808904975e-13
2.553549843e-13
2.321409026e-13
2.110371877e-13
1.91851981e-13
1.744108975e-13
1.585553557e-13
1.441412353e-13
1.310374881e-13
1.191249906e-13
1.082954438e-13
9.845039782e-14
8.950036946e-14
7.080815278e-12
6.437104794e-12
5.851913454e-12
5.319921325e-12
4.836292104e-12
4.396629193e-12
3.99693563e-12
3.633577845e-12
3.303252582e-12
3.002956896e-12
2.729960815e-12
2.481782556e-12
2.256165964e-12
2.051059964e-12
1.864599967e-12
1.695090883e-12
1.540991708e-12
1.400901553e-12
1.273546871e-12
1.15776988e-12
1.052518071e-12
9.568346088e-13
8.6984965e-13
7.907724063e-13
7.18884005e-13
6.535309129e-13
5.941190146e-13
5.401081908e-13
4.910074525e-13
4.463704044e-13
4.057912795e-13
3.68901166e-13
3.35364688e-13
3.048769947e-13
2.771609112e-13
2.519644515e-13
2.290585999e-13
2.082350943e-13
1.893046235e-13
1.720951179e-13
1.564501016e-13
1.422273679e-13
1.292976086e-13
1.175432819e-13
1.068575269e-13
9.714320068e-14
8.831200832e-14
6.986798019e-12
6.351634559e-12
5.774213241e-12
5.249284768e-12
4.772077051e-12
4.338251873e-12
3.943865338e-12
3.585332126e-12
3.259392837e-12
2.963084401e-12
2.693713092e-12
2.448830081e-12
2.226209168e-12
2.023826513e-12
1.839842284e-12
1.672583898e-12
1.520530813e-12
1.382300739e-12
1.256637041e-12
1.142397307e-12
1.038543005e-12
9.44130003e-13
8.583000083e-13
7.80272732e-13
7.093388466e-13
6.448534962e-13
5.862304539e-13
5.329367721e-13
4.844879809e-13
4.404436121e-13
4.004032865e-13
3.640029904e-13
3.309118012e-13
3.008289157e-13
2.734808394e-13
2.486189318e-13
2.260172183e-13
2.054702019e-13
1.86791085e-13
1.698100828e-13
1.543727971e-13
1.403389092e-13
1.275808279e-13
1.159825722e-13
1.054386999e-13
9.585335805e-14
8.7139424e-14
6.894029188e-12
6.267299259e-12
5.697544785e-12
5.179586172e-12
4.708714692e-12
4.280649728e-12
3.891499752e-12
3.537727047e-12
3.216115493e-12
2.92374136e-12
2.657946692e-12
2.416315172e-12
2.19665016e-12
1.996954687e-12
1.815413352e-12
1.650375778e-12
1.500341613e-12
1.363946921e-12
1.239951751e-12
1.127228862e-12
1.024753509e-12
9.31594098e-13
8.469037309e-13
7.699124799e-13
6.999204356e-13
6.362913044e-13
5.784466431e-13
5.258605805e-13
4.780550794e-13
4.345955199e-13
3.95086839e-13
3.591698563e-13
3.26518043e-13
2.9683459e-13
2.698496341e-13
2.453178362e-13
2.230162223e-13
2.027420237e-13
1.843109231e-13
1.675553901e-13
1.523230764e-13
1.384755268e-13
1.258868439e-13
1.144425867e-13
1.040387131e-13
9.458064286e-14
8.59824101e-14
6.80249205e-12
6.184083678e-12
5.621894258e-12
5.110812965e-12
4.646193594e-12
4.223812367e-12
3.839829424e-12
3.490754021e-12
3.173412742e-12
2.884920678e-12
2.622655162e-12
2.384231963e-12
2.167483606e-12
1.970439639e-12
1.791308762e-12
1.628462515e-12
1.480420465e-12
1.345836786e-12
1.223487992e-12
1.112261808e-12
1.011147097e-12
9.192246323e-13
8.35658762e-13
7.596897809e-13
6.906270729e-13
6.278427929e-13
5.70766178e-13
5.188783396e-13
4.717075875e-13
4.288250728e-13
3.89840978e-13
3.544008918e-13
3.221826208e-13
2.92893297e-13
2.662666404e-13
2.420605694e-13
2.200550705e-13
2.000500674e-13
1.818636903e-13
1.653306329e-13
1.5030057e-13
1.366368845e-13
1.242153509e-13
1.129230476e-13
1.02657314e-13
9.332482552e-14
8.484075787e-14
6.712170421e-12
6.101973106e-12
5.547248283e-12
5.042952988e-12
4.584502706e-12
4.167729741e-12
3.788845218e-12
3.444404744e-12
3.131277035e-12
2.84661549e-12
2.587832264e-12
2.352574783e-12
2.138704352e-12
1.94427668e-12
1.767524254e-12
1.606840235e-12
1.460763846e-12
1.327967133e-12
1.207242853e-12
1.0974935e-12
9.977213623e-13
9.070194189e-13
8.245631134e-13
7.496028277e-13
6.814571155e-13
6.195064679e-13
5.631877008e-13
5.119888149e-13
4.654443832e-13
4.231312508e-13
3.846647761e-13
3.496952536e-13
3.179047681e-13
2.890043399e-13
2.627312248e-13
2.388465553e-13
2.171332394e-13
1.973938573e-13
1.794489539e-13
1.63135418e-13
1.483049201e-13
1.348226573e-13
1.225660534e-13
1.114236863e-13
1.012942582e-13
9.2085684e-14
8.371426549e-14
6.623048025e-12
6.020952746e-12
5.47359341e-12
4.975994013e-12
4.523630911e-12
4.112391745e-12
3.738537949e-12
3.398670863e-12
3.08970078e-12
2.808818894e-12
2.553471723e-12
2.321337927e-12
2.11030721e-12
1.918461096e-12
1.744055542e-12
1.585505042e-12
1.441368216e-12
1.310334742e-12
1.191213407e-12
1.082921276e-12
9.84473886e-13
8.949762587e-13
8.136147859e-13
7.396498027e-13
6.724089109e-13
6.112808275e-13
5.557098458e-13
5.051907649e-13
4.592643377e-13
4.175130277e-13
3.795573005e-13
3.45052094e-13
3.13683714e-13
2.851670179e-13
2.592427501e-13
2.356752149e-13
2.142502026e-13
1.947729147e-13
1.770662789e-13
1.609693497e-13
1.463357672e-13
1.330325183e-13
1.209386543e-13
1.099442325e-13
9.994930029e-14
9.086299503e-14
8.260272995e-14
6.535108863e-12
5.941008054e-12
5.400916417e-12
4.909924019e-12
4.46356728e-12
4.057788444e-12
3.688898585e-12
3.353544168e-12
3.048676512e-12
2.771524105e-12
2.519567369e-12
2.290515787e-12
2.082287083e-12
1.892988254e-12
1.720898412e-12
1.564453105e-12
1.422230093e-12
1.292936448e-12
1.175396775e-12
1.06854252e-12
9.7140229e-13
8.830929896e-13
8.028118139e-13
7.298289191e-13
6.634808349e-13
6.031643947e-13
5.483312705e-13
4.984829693e-13
4.531663416e-13
4.11969395e-13
3.745176344e-13
3.404705793e-13
3.095187007e-13
2.813806422e-13
2.558005902e-13
2.325459789e-13
2.114054424e-13
1.921867691e-13
1.747152375e-13
1.588320393e-13
1.443927578e-13
1.31266146e-13
1.193328613e-13
1.084844207e-13
9.862219868e-14
8.965653909e-14
8.150595173e-14
6.448337487e-12
5.862124985e-12
5.329204536e-12
4.8447314e-12
4.404301263e-12
4.003910247e-12
3.639918405e-12
3.309016732e-12
3.008197025e-12
2.734724571e-12
2.486113247e-12
2.260102949e-12
2.054639048e-12
1.867853677e-12
1.698048797e-12
1.543680728e-12
1.403346113e-12
1.275769194e-12
1.159790181e-12
1.054354707e-12
9.585042778e-13
8.71367524e-13
7.921522997e-13
7.201384517e-13
6.546713191e-13
5.95155744e-13
5.410506789e-13
4.918642497e-13
4.471493237e-13
4.064993788e-13
3.695448924e-13
3.359499047e-13
3.054089966e-13
2.776445475e-13
2.524041404e-13
2.294582974e-13
2.085984592e-13
1.896349661e-13
1.723954167e-13
1.567231112e-13
1.424755505e-13
1.295232303e-13
1.177483925e-13
1.070439944e-13
9.731272028e-14
8.846610425e-14
8.042373815e-14
6.362718173e-12
5.784289245e-12
5.258444773e-12
4.780404342e-12
4.34582212e-12
3.950747389e-12
3.591588535e-12
3.265080486e-12
2.968254983e-12
2.698413624e-12
2.453103295e-12
2.230093902e-12
2.027358096e-12
1.843052811e-12
1.675502556e-12
1.523184145e-12
1.384712856e-12
1.258829869e-12
1.144390794e-12
1.040355265e-12
9.457775124e-13
8.597977373e-13
7.816343117e-13
7.105766445e-13
6.459787671e-13
5.87253424e-13
5.338667516e-13
4.853334068e-13
4.412121936e-13
4.011019879e-13
3.646381734e-13
3.31489251e-13
3.01353857e-13
2.739580569e-13
2.490527853e-13
2.26411611e-13
2.058287442e-13
1.871170433e-13
1.701063961e-13
1.546421833e-13
1.40583798e-13
1.278034552e-13
1.161849606e-13
1.056226927e-13
9.602062781e-14
8.72914748e-14
7.93558931e-14
6.27823575e-12
5.707487042e-12
5.188624588e-12
4.716931447e-12
4.288119488e-12
3.898290451e-12
3.543900409e-12
3.221727645e-12
2.928843309e-12
2.66258483e-12
2.420531664e-12
2.200483328e-12
2.000439392e-12
1.818581263e-12
1.653255693e-12
1.502959724e-12
1.366327019e-12
1.242115472e-12
1.129195888e-12
1.026541714e-12
9.332197385e-13
8.483815793e-13
7.712559861e-13
7.011418031e-13
6.374016385e-13
5.794560344e-13
5.267782156e-13
4.788892832e-13
4.353538994e-13
3.95776266e-13
3.597966079e-13
3.270878278e-13
2.973525633e-13
2.703205171e-13
2.457459308e-13
2.234053799e-13
2.030958067e-13
1.846325546e-13
1.678477701e-13
1.525888869e-13
1.387171649e-13
1.261065161e-13
1.146422886e-13
1.042202636e-13
9.47456923e-14
8.613244258e-14
7.830222736e-14
6.194874953e-12
5.631704499e-12
5.119731367e-12
4.654301246e-12
4.231182942e-12
3.846529954e-12
3.496845412e-12
3.178950375e-12
2.889954882e-12
2.627231714e-12
2.388392468e-12
2.171265877e-12
1.973878073e-12
1.794434609e-12
1.63130419e-12
1.483003812e-12
1.348185281e-12
1.225622983e-12
1.114202716e-12
1.012911557e-12
9.208286872e-13
8.371169872e-13
7.610154478e-13
6.918322228e-13
6.289383838e-13
5.717621664e-13
5.197837901e-13
4.725307146e-13
4.295733824e-13
3.905212506e-13
3.550193212e-13
3.227448399e-13
2.934043926e-13
2.667312709e-13
2.424829796e-13
2.204390608e-13
2.003991529e-13
1.821810511e-13
1.656191307e-13
1.50562851e-13
1.368753142e-13
1.244321062e-13
1.131200978e-13
1.028364538e-13
9.348768341e-14
8.49887982e-14
7.726255055e-14
6.112620978e-12
5.556928158e-12
5.051752876e-12
4.592502617e-12
4.17500237e-12
3.795456707e-12
3.450415188e-12
3.13674108e-12
2.851582796e-12
2.592347999e-12
2.35668e-12
2.142436361e-12
1.947669422e-12
1.770608563e-12
1.609644148e-12
1.463312865e-12
1.330284419e-12
1.209349472e-12
1.099408615e-12
9.994623751e-13
9.08602158e-13
8.260019606e-13
7.509108781e-13
6.826462504e-13
6.205874998e-13
5.641704537e-13
5.128822331e-13
4.662565719e-13
4.238696163e-13
3.853360087e-13
3.503054649e-13
3.18459516e-13
2.895086436e-13
2.631896809e-13
2.392633523e-13
2.17512127e-13
1.977383039e-13
1.797620975e-13
1.63420082e-13
1.485637157e-13
1.350579185e-13
1.227799284e-13
1.116181179e-13
1.014710175e-13
9.224637771e-14
8.386033854e-14
7.623667805e-14
6.031459296e-12
5.483144812e-12
4.984677106e-12
4.531524645e-12
4.11956785e-12
3.745061689e-12
3.404601535e-12
3.095092304e-12
2.813720272e-12
2.557927523e-12
2.325388658e-12
2.113989687e-12
1.921808809e-12
1.747098915e-12
1.58827174e-12
1.443883403e-12
1.312621273e-12
1.193292066e-12
1.084810973e-12
9.861917917e-13
8.965379913e-13
8.150345363e-13
7.409404923e-13
6.735822634e-13
6.123475116e-13
5.566795554e-13
5.060723254e-13
4.600657468e-13
4.182415934e-13
3.802196244e-13
3.456542064e-13
3.142310991e-13
2.856646284e-13
2.596951215e-13
2.3608648e-13
2.146240614e-13
1.951127897e-13
1.773752663e-13
1.612502356e-13
1.46591128e-13
1.33264657e-13
1.211496906e-13
1.101360836e-13
1.001237135e-13
9.102155596e-14
8.274686429e-14
7.522442864e-14
5.951375197e-12
5.410341085e-12
4.918491899e-12
4.471356275e-12
4.064869332e-12
3.695335764e-12
3.359396148e-12
3.053996498e-12
2.776360449e-12
2.523964047e-12
2.294512771e-12
2.085920699e-12
1.896291547e-12
1.723901403e-12
1.567183094e-12
1.424711907e-12
1.295192639e-12
1.177447854e-12
1.070407144e-12
9.730974014e-13
8.846340001e-13
8.042127262e-13
7.311024831e-13
6.646386186e-13
6.042169254e-13
5.492881134e-13
4.993528328e-13
4.539571172e-13
4.126882936e-13
3.751711701e-13
3.410647025e-13
3.100588228e-13
2.8187165e-13
2.562469593e-13
2.32951787e-13
2.117743407e-13
1.925221344e-13
1.750201251e-13
1.591091982e-13
1.446447303e-13
1.314952047e-13
1.195410975e-13
1.086737262e-13
9.87942977e-14
8.981299614e-14
8.16481736e-14
7.422561884e-14
5.872354426e-12
5.338504021e-12
4.853185477e-12
4.4119868e-12
4.010897083e-12
3.646270082e-12
3.314790983e-12
3.013446348e-12
2.739496676e-12
2.490451527e-12
2.264046843e-12
2.0582244e-12
1.871113094e-12
1.701011901e-12
1.546374455e-12
1.405794962e-12
1.277995417e-12
1.161814016e-12
1.056194564e-12
9.60176874e-13
8.728880661e-13
7.935346044e-13
7.213950995e-13
6.558137245e-13
5.961942944e-13
5.419948125e-13
4.927225592e-13
4.479295958e-13
4.072087286e-13
3.701897475e-13
3.365361364e-13
3.059419445e-13
2.781290335e-13
2.528445806e-13
2.298587154e-13
2.089624575e-13
1.899658769e-13
1.726962546e-13
1.569965887e-13
1.427241762e-13
1.297492464e-13
1.179538627e-13
1.072307855e-13
9.748253339e-14
8.862048316e-14
8.056407095e-14
7.324007089e-14
5.794382823e-12
5.267620746e-12
4.788746136e-12
4.353405581e-12
3.957641429e-12
3.597855851e-12
3.270778046e-12
2.973434587e-12
2.703122348e-12
2.457383956e-12
2.233985415e-12
2.030895829e-12
1.846268939e-12
1.678426305e-12
1.525842096e-12
1.387129181e-12
1.261026525e-12
1.14638775e-12
1.042170686e-12
9.474278939e-13
8.612980842e-13
7.829982572e-13
7.118166021e-13
6.471059996e-13
5.882781809e-13
5.347983457e-13
4.861803165e-13
4.419821025e-13
4.018019165e-13
3.652744638e-13
3.320676967e-13
3.018797266e-13
2.744361082e-13
2.494873757e-13
2.268067109e-13
2.061879081e-13
1.874435591e-13
1.704032384e-13
1.549120286e-13
1.408291215e-13
1.280264695e-13
1.163877019e-13
1.058070028e-13
9.618818554e-14
8.744380332e-14
7.949436207e-14
7.226760818e-14
5.717446505e-12
5.197678638e-12
4.725162402e-12
4.295602186e-12
3.905092888e-12
3.550084451e-12
3.2273495e-12
2.933954091e-12
2.667230988e-12
2.424755446e-12
2.204323134e-12
2.003930119e-12
1.821754657e-12
1.656140594e-12
1.505582358e-12
1.368711238e-12
1.24428294e-12
1.131166309e-12
1.028333013e-12
9.34848191e-13
8.498619907e-13
7.726018086e-13
7.02365285e-13
6.385138932e-13
5.804671751e-13
5.276974313e-13
4.797249399e-13
4.361135783e-13
3.964668944e-13
3.604244438e-13
3.276585876e-13
2.978714455e-13
2.707922164e-13
2.461747467e-13
2.237952299e-13
2.034501983e-13
1.849547319e-13
1.681406682e-13
1.528551467e-13
1.389592288e-13
1.263265671e-13
1.14842336e-13
1.044021248e-13
9.491102365e-14
8.628274708e-14
7.843885646e-14
7.130805754e-14
5.641531861e-12
5.128665325e-12
4.662423027e-12
4.238566391e-12
3.853242165e-12
3.502947429e-12
3.184497663e-12
2.894997875e-12
2.631816246e-12
2.392560227e-12
2.175054752e-12
1.9773225e-12
1.797565911e-12
1.634150826e-12
1.48559166e-12
1.350537875e-12
1.227761702e-12
1.116147002e-12
1.014679097e-12
9.224355401e-13
8.385777626e-13
7.623434194e-13
6.930394767e-13
6.300358857e-13
5.727598955e-13
5.206908135e-13
4.733552873e-13
4.303229851e-13
3.912027187e-13
3.556388296e-13
3.233080292e-13
2.939163924e-13
2.671967136e-13
2.429061078e-13
2.208237399e-13
2.007488439e-13
1.824989551e-13
1.659081438e-13
1.508255791e-13
1.371141673e-13
1.246492386e-13
1.133174918e-13
1.030159028e-13
9.365082182e-14
8.513710907e-14
7.739736742e-14
7.036124924e-14
5.566625007e-12
5.060568185e-12
4.600516536e-12
4.182287763e-12
3.802079776e-12
3.456436167e-12
3.142214696e-12
2.856558815e-12
2.596871646e-12
2.360792408e-12
2.146174917e-12
1.951068104e-12
1.773698279e-12
1.612452979e-12
1.465866344e-12
1.33260577e-12
1.211459788e-12
1.10132708e-12
1.00120644e-12
9.101876709e-13
8.274433361e-13
7.522212135e-13
6.838374713e-13
6.216704262e-13
5.651549324e-13
5.137772107e-13
4.670701937e-13
4.246092637e-13
3.860084265e-13
3.509167459e-13
3.190152257e-13
2.900138438e-13
2.636489423e-13
2.39680861e-13
2.178916973e-13
1.980833508e-13
1.800757795e-13
1.637052568e-13
1.488229547e-13
1.352935996e-13
1.22994177e-13
1.118128904e-13
1.016480833e-13
9.240734955e-14
8.400667976e-14
7.636970447e-14
6.942701012e-14
5.492712886e-12
4.993375348e-12
4.539432139e-12
4.126756492e-12
3.751596803e-12
3.410542555e-12
3.100493231e-12
2.81863021e-12
2.562391096e-12
2.329446454e-12
2.117678595e-12
1.925162357e-12
1.7501476e-12
1.59104327e-12
1.446402973e-12
1.314911796e-12
1.195374357e-12
1.086703961e-12
9.879126958e-13
8.981024486e-13
8.164567703e-13
7.422334265e-13
6.747576648e-13
6.134160567e-13
5.576509601e-13
5.069554178e-13
4.608685638e-13
4.189714183e-13
3.808831125e-13
3.462573695e-13
3.14779429e-13
2.861631195e-13
2.601482839e-13
2.364984443e-13
2.149985911e-13
1.954532543e-13
1.776847827e-13
1.615316233e-13
1.468469243e-13
1.334972083e-13
1.213610941e-13
1.103282695e-13
1.002984279e-13
9.11803901e-14
8.28912621e-14
7.535568847e-14
6.850517731e-14
5.419782166e-12
4.927074693e-12
4.479158816e-12
4.071962563e-12
3.70178414e-12
3.365258315e-12
3.059325741e-12
2.781205219e-12
2.528368377e-12
2.298516709e-12
2.089560645e-12
1.899600584e-12
1.726909625e-12
1.569917838e-12
1.427198035e-12
1.297452761e-12
1.179502508e-12
1.072275007e-12
9.747954646e-13
8.86177693e-13
8.056160834e-13
7.323782566e-13
6.657984194e-13
6.052712882e-13
5.502466251e-13
5.002242041e-13
4.547492786e-13
4.134084319e-13
3.75825852e-13
3.416598601e-13
3.105998749e-13
2.823635248e-13
2.56694107e-13
2.333582834e-13
2.121438994e-13
1.928580802e-13
1.753255333e-13
1.593868511e-13
1.448971315e-13
1.317246693e-13
1.197496951e-13
1.088633613e-13
9.896669316e-14
8.996972213e-14
8.179065487e-14
7.435513651e-14
6.759558454e-14
5.347819604e-12
4.861654183e-12
4.419685624e-12
4.017896025e-12
3.652632742e-12
3.320575226e-12
3.018704751e-12
2.744277046e-12
2.494797311e-12
2.267997558e-12
2.061815962e-12
1.874378145e-12
1.703980135e-12
1.549072847e-12
1.408248043e-12
1.280225496e-12
1.163841358e-12
1.058037598e-12
9.618523653e-13
8.744112391e-13
7.949193072e-13
7.226539146e-13
6.569581084e-13
5.972346419e-13
5.42940583e-13
4.935823477e-13
4.487112273e-13
4.079192943e-13
3.708357269e-13
3.371233828e-13
3.064758046e-13
2.7861437e-13
2.532857845e-13
2.302598084e-13
2.093271038e-13
1.90297357e-13
1.729976031e-13
1.572705509e-13
1.429732223e-13
1.299756609e-13
1.181596875e-13
1.074178998e-13
9.765263726e-14
8.877512584e-14
8.070465827e-14
7.336786692e-14
6.669806665e-14
5.276812788e-12
4.797102532e-12
4.361002305e-12
3.964547553e-12
3.604134131e-12
3.27648558e-12
2.978623254e-12
2.707839322e-12
2.461672107e-12
2.237883736e-12
2.034439761e-12
1.84949069e-12
1.681355175e-12
1.528504702e-12
1.389549729e-12
1.263227029e-12
1.148388206e-12
1.043989278e-12
9.490811653e-13
8.628010572e-13
7.843645964e-13
7.13058723e-13
6.482352069e-13
5.893047315e-13
5.357315735e-13
4.870287027e-13
4.427533682e-13
4.025030588e-13
3.659118764e-13
3.326471551e-13
3.024065067e-13
2.749150082e-13
2.499227285e-13
2.272024846e-13
2.065477185e-13
1.877706433e-13
1.707005905e-13
1.551823576e-13
1.410748648e-13
1.282498813e-13
1.16590797e-13
1.059916357e-13
9.635603352e-14
8.759639516e-14
7.963308494e-14
7.239370941e-14
6.581246884e-14
5.20674866e-12
4.73340787e-12
4.303098067e-12
3.911907337e-12
3.556279389e-12
3.232981269e-12
2.93907388e-12
2.671885346e-12
2.428986674e-12
2.208169707e-12
2.007427007e-12
1.82493364e-12
1.659030585e-12
1.50820962e-12
1.371099654e-12
1.246454234e-12
1.13314021e-12
1.030127464e-12
9.36479516e-13
8.513450125e-13
7.739500103e-13
7.035909174e-13
6.396281109e-13
5.814800987e-13
5.286182711e-13
4.805620641e-13
4.368746058e-13
3.971587294e-13
3.61053395e-13
3.28230354e-13
2.983912329e-13
2.712647593e-13
2.466043204e-13
2.2418575e-13
2.038052324e-13
1.852774742e-13
1.684340731e-13
1.531218872e-13
1.3920171e-13
1.265470132e-13
1.150427352e-13
1.045843068e-13
9.507664354e-14
8.643331334e-14
7.857573785e-14
7.143248484e-14
6.493862824e-14
5.137614807e-12
4.670558913e-12
4.245962652e-12
3.85996605e-12
3.509060037e-12
3.190054586e-12
2.900049623e-12
2.636408748e-12
2.396735222e-12
2.178850204e-12
1.980772913e-12
1.800702647e-12