/*--------------------------------*- C++ -*----------------------------------*\
  =========                 |
  \\      /  F ield         | OpenFOAM: The Open Source CFD Toolbox
   \\    /   O peration     | Website:  https://openfoam.org
    \\  /    A nd           | Version:  7
     \\/     M anipulation  |
\*---------------------------------------------------------------------------*/
FoamFile
{
    version     2.0;
    format      ascii;
    class       volVectorField;
    location    "constant";
    object      C;
}
// * * * * * * * * * * * * * * * * * * * * * * * * * * * * * * * * * * * * * //

dimensions      [0 1 0 0 0 0 0];

internalField   nonuniform List<vector> 
8748
(
(0.0005 4.572056072e-05 4.662161789e-05)
(0.0005 0.0001330052675 4.662161789e-05)
(0.0005 0.000212355001 4.662161789e-05)
(0.0005 0.0002844911224 4.662161789e-05)
(0.0005 0.0003500694144 4.662161788e-05)
(0.0005 0.0004096860436 4.662161788e-05)
(0.0005 0.0004638829793 4.662161789e-05)
(0.0005 0.0005131529208 4.662161789e-05)
(0.0005 0.0005579437767 4.662161789e-05)
(0.0005 0.0005986627366 4.662161789e-05)
(0.0005 0.0006356799729 4.662161789e-05)
(0.0005 0.0006693320059 4.662161788e-05)
(0.0005 0.0006999247631 4.662161789e-05)
(0.0005 0.0007277363606 4.662161789e-05)
(0.0005 0.0007530196311 4.662161789e-05)
(0.0005 0.0007760044224 4.662161788e-05)
(0.0005 0.0007968996872 4.662161789e-05)
(0.0005 0.0008158953826 4.662161789e-05)
(0.0005 0.0008331641965 4.662161788e-05)
(0.0005 0.0008488631182 4.662161789e-05)
(0.0005 0.0008631348653 4.662161789e-05)
(0.0005 0.0008761091807 4.662161788e-05)
(0.0005 0.000887904013 4.662161789e-05)
(0.0005 0.0008986265878 4.662161789e-05)
(0.0005 0.0009083743831 4.662161789e-05)
(0.0005 0.0009172360152 4.662161789e-05)
(0.0005 0.0009252920443 4.662161789e-05)
(0.0005 0.0009326157071 4.662161789e-05)
(0.0005 0.0009392735825 4.662161788e-05)
(0.0005 0.0009453261964 4.662161788e-05)
(0.0005 0.0009508285727 4.662161789e-05)
(0.0005 0.000955830733 4.662161789e-05)
(0.0005 0.0009603781514 4.662161789e-05)
(0.0005 0.0009645121682 4.662161789e-05)
(0.0005 0.0009682703652 4.662161788e-05)
(0.0005 0.0009716869079 4.662161789e-05)
(0.0005 0.0009747928559 4.662161789e-05)
(0.0005 0.000977616445 4.662161789e-05)
(0.0005 0.0009801833442 4.662161788e-05)
(0.0005 0.0009825168888 4.662161789e-05)
(0.0005 0.0009846382931 4.662161789e-05)
(0.0005 0.0009865668425 4.662161789e-05)
(0.0005 0.0009883200691 4.662161789e-05)
(0.0005 0.0009899139115 4.662161788e-05)
(0.0005 0.0009913628592 4.662161789e-05)
(0.0005 0.0009926800843 4.662161788e-05)
(0.0005 0.0009938775617 4.662161789e-05)
(0.0005 0.0009949661775 4.662161789e-05)
(0.0005 0.0009959558283 4.662161789e-05)
(0.0005 0.0009968555108 4.662161788e-05)
(0.0005 0.0009976734039 4.662161788e-05)
(0.0005 0.0009984169432 4.662161788e-05)
(0.0005 0.000999092888 4.662161788e-05)
(0.0005 0.0009997073832 4.662161789e-05)
(0.0005 4.572056072e-05 0.0001384247911)
(0.0005 0.0001330052675 0.0001384247911)
(0.0005 0.000212355001 0.0001384247911)
(0.0005 0.0002844911223 0.0001384247911)
(0.0005 0.0003500694144 0.0001384247911)
(0.0005 0.0004096860436 0.0001384247911)
(0.0005 0.0004638829793 0.0001384247911)
(0.0005 0.0005131529208 0.0001384247911)
(0.0005 0.0005579437767 0.0001384247911)
(0.0005 0.0005986627366 0.0001384247911)
(0.0005 0.0006356799729 0.0001384247911)
(0.0005 0.0006693320059 0.0001384247911)
(0.0005 0.0006999247631 0.0001384247911)
(0.0005 0.0007277363606 0.0001384247911)
(0.0005 0.0007530196311 0.0001384247911)
(0.0005 0.0007760044224 0.0001384247911)
(0.0005 0.0007968996872 0.0001384247911)
(0.0005 0.0008158953826 0.0001384247911)
(0.0005 0.0008331641965 0.0001384247911)
(0.0005 0.0008488631183 0.0001384247911)
(0.0005 0.0008631348653 0.0001384247911)
(0.0005 0.0008761091808 0.0001384247911)
(0.0005 0.000887904013 0.0001384247911)
(0.0005 0.0008986265878 0.0001384247911)
(0.0005 0.0009083743831 0.0001384247911)
(0.0005 0.0009172360151 0.0001384247911)
(0.0005 0.0009252920442 0.0001384247911)
(0.0005 0.0009326157071 0.0001384247911)
(0.0005 0.0009392735825 0.0001384247911)
(0.0005 0.0009453261964 0.0001384247911)
(0.0005 0.0009508285727 0.0001384247911)
(0.0005 0.000955830733 0.0001384247911)
(0.0005 0.0009603781514 0.0001384247911)
(0.0005 0.0009645121681 0.0001384247911)
(0.0005 0.0009682703652 0.0001384247911)
(0.0005 0.0009716869079 0.0001384247911)
(0.0005 0.0009747928559 0.0001384247911)
(0.0005 0.000977616445 0.0001384247911)
(0.0005 0.0009801833442 0.0001384247911)
(0.0005 0.0009825168889 0.0001384247911)
(0.0005 0.0009846382931 0.0001384247911)
(0.0005 0.0009865668425 0.0001384247911)
(0.0005 0.0009883200691 0.0001384247911)
(0.0005 0.0009899139115 0.0001384247911)
(0.0005 0.0009913628592 0.0001384247911)
(0.0005 0.0009926800843 0.0001384247911)
(0.0005 0.0009938775617 0.0001384247911)
(0.0005 0.0009949661775 0.0001384247911)
(0.0005 0.0009959558283 0.0001384247911)
(0.0005 0.0009968555107 0.0001384247911)
(0.0005 0.0009976734039 0.0001384247911)
(0.0005 0.0009984169432 0.0001384247911)
(0.0005 0.0009990928879 0.0001384247911)
(0.0005 0.0009997073832 0.0001384247911)
(0.0005 4.572056072e-05 0.0002273923204)
(0.0005 0.0001330052675 0.0002273923203)
(0.0005 0.000212355001 0.0002273923203)
(0.0005 0.0002844911224 0.0002273923203)
(0.0005 0.0003500694144 0.0002273923204)
(0.0005 0.0004096860436 0.0002273923204)
(0.0005 0.0004638829793 0.0002273923203)
(0.0005 0.0005131529208 0.0002273923203)
(0.0005 0.0005579437767 0.0002273923204)
(0.0005 0.0005986627366 0.0002273923204)
(0.0005 0.0006356799729 0.0002273923203)
(0.0005 0.0006693320059 0.0002273923203)
(0.0005 0.0006999247631 0.0002273923204)
(0.0005 0.0007277363606 0.0002273923203)
(0.0005 0.0007530196311 0.0002273923203)
(0.0005 0.0007760044224 0.0002273923203)
(0.0005 0.0007968996872 0.0002273923203)
(0.0005 0.0008158953826 0.0002273923204)
(0.0005 0.0008331641965 0.0002273923203)
(0.0005 0.0008488631182 0.0002273923203)
(0.0005 0.0008631348653 0.0002273923203)
(0.0005 0.0008761091807 0.0002273923203)
(0.0005 0.000887904013 0.0002273923203)
(0.0005 0.0008986265878 0.0002273923203)
(0.0005 0.0009083743831 0.0002273923203)
(0.0005 0.0009172360151 0.0002273923204)
(0.0005 0.0009252920443 0.0002273923203)
(0.0005 0.0009326157071 0.0002273923204)
(0.0005 0.0009392735825 0.0002273923204)
(0.0005 0.0009453261964 0.0002273923203)
(0.0005 0.0009508285727 0.0002273923204)
(0.0005 0.000955830733 0.0002273923204)
(0.0005 0.0009603781514 0.0002273923203)
(0.0005 0.0009645121681 0.0002273923203)
(0.0005 0.0009682703652 0.0002273923204)
(0.0005 0.0009716869079 0.0002273923203)
(0.0005 0.0009747928559 0.0002273923203)
(0.0005 0.000977616445 0.0002273923203)
(0.0005 0.0009801833442 0.0002273923204)
(0.0005 0.0009825168889 0.0002273923203)
(0.0005 0.0009846382931 0.0002273923203)
(0.0005 0.0009865668425 0.0002273923204)
(0.0005 0.0009883200691 0.0002273923203)
(0.0005 0.0009899139115 0.0002273923203)
(0.0005 0.0009913628592 0.0002273923203)
(0.0005 0.0009926800843 0.0002273923203)
(0.0005 0.0009938775617 0.0002273923203)
(0.0005 0.0009949661775 0.0002273923203)
(0.0005 0.0009959558283 0.0002273923203)
(0.0005 0.0009968555108 0.0002273923204)
(0.0005 0.0009976734039 0.0002273923203)
(0.0005 0.0009984169432 0.0002273923203)
(0.0005 0.000999092888 0.0002273923203)
(0.0005 0.0009997073832 0.0002273923203)
(0.0005 4.572056071e-05 0.0003136117937)
(0.0005 0.0001330052675 0.0003136117937)
(0.0005 0.000212355001 0.0003136117938)
(0.0005 0.0002844911223 0.0003136117937)
(0.0005 0.0003500694144 0.0003136117937)
(0.0005 0.0004096860436 0.0003136117937)
(0.0005 0.0004638829793 0.0003136117937)
(0.0005 0.0005131529208 0.0003136117937)
(0.0005 0.0005579437767 0.0003136117937)
(0.0005 0.0005986627366 0.0003136117938)
(0.0005 0.0006356799729 0.0003136117937)
(0.0005 0.0006693320059 0.0003136117937)
(0.0005 0.0006999247631 0.0003136117938)
(0.0005 0.0007277363607 0.0003136117938)
(0.0005 0.0007530196311 0.0003136117937)
(0.0005 0.0007760044224 0.0003136117937)
(0.0005 0.0007968996872 0.0003136117938)
(0.0005 0.0008158953826 0.0003136117937)
(0.0005 0.0008331641965 0.0003136117938)
(0.0005 0.0008488631183 0.0003136117938)
(0.0005 0.0008631348653 0.0003136117937)
(0.0005 0.0008761091807 0.0003136117938)
(0.0005 0.000887904013 0.0003136117937)
(0.0005 0.0008986265878 0.0003136117938)
(0.0005 0.0009083743831 0.0003136117937)
(0.0005 0.0009172360151 0.0003136117937)
(0.0005 0.0009252920442 0.0003136117938)
(0.0005 0.0009326157071 0.0003136117937)
(0.0005 0.0009392735825 0.0003136117938)
(0.0005 0.0009453261964 0.0003136117937)
(0.0005 0.0009508285727 0.0003136117937)
(0.0005 0.000955830733 0.0003136117938)
(0.0005 0.0009603781514 0.0003136117937)
(0.0005 0.0009645121682 0.0003136117938)
(0.0005 0.0009682703652 0.0003136117937)
(0.0005 0.000971686908 0.0003136117937)
(0.0005 0.000974792856 0.0003136117938)
(0.0005 0.000977616445 0.0003136117938)
(0.0005 0.0009801833442 0.0003136117937)
(0.0005 0.0009825168889 0.0003136117937)
(0.0005 0.0009846382931 0.0003136117938)
(0.0005 0.0009865668425 0.0003136117937)
(0.0005 0.0009883200691 0.0003136117937)
(0.0005 0.0009899139115 0.0003136117938)
(0.0005 0.0009913628592 0.0003136117937)
(0.0005 0.0009926800843 0.0003136117938)
(0.0005 0.0009938775617 0.0003136117937)
(0.0005 0.0009949661775 0.0003136117937)
(0.0005 0.0009959558283 0.0003136117938)
(0.0005 0.0009968555107 0.0003136117937)
(0.0005 0.0009976734039 0.0003136117937)
(0.0005 0.0009984169432 0.0003136117937)
(0.0005 0.0009990928879 0.0003136117937)
(0.0005 0.0009997073832 0.0003136117937)
(0.0005 4.572056072e-05 0.0003971680942)
(0.0005 0.0001330052675 0.0003971680942)
(0.0005 0.000212355001 0.0003971680942)
(0.0005 0.0002844911223 0.0003971680942)
(0.0005 0.0003500694144 0.0003971680942)
(0.0005 0.0004096860436 0.0003971680942)
(0.0005 0.0004638829793 0.0003971680942)
(0.0005 0.0005131529208 0.0003971680942)
(0.0005 0.0005579437767 0.0003971680942)
(0.0005 0.0005986627366 0.0003971680942)
(0.0005 0.0006356799729 0.0003971680942)
(0.0005 0.0006693320059 0.0003971680942)
(0.0005 0.0006999247631 0.0003971680942)
(0.0005 0.0007277363606 0.0003971680942)
(0.0005 0.0007530196311 0.0003971680942)
(0.0005 0.0007760044224 0.0003971680942)
(0.0005 0.0007968996872 0.0003971680942)
(0.0005 0.0008158953826 0.0003971680942)
(0.0005 0.0008331641965 0.0003971680942)
(0.0005 0.0008488631182 0.0003971680942)
(0.0005 0.0008631348653 0.0003971680942)
(0.0005 0.0008761091808 0.0003971680942)
(0.0005 0.000887904013 0.0003971680942)
(0.0005 0.0008986265878 0.0003971680942)
(0.0005 0.0009083743831 0.0003971680942)
(0.0005 0.0009172360151 0.0003971680942)
(0.0005 0.0009252920442 0.0003971680942)
(0.0005 0.0009326157071 0.0003971680942)
(0.0005 0.0009392735824 0.0003971680942)
(0.0005 0.0009453261964 0.0003971680942)
(0.0005 0.0009508285727 0.0003971680942)
(0.0005 0.000955830733 0.0003971680942)
(0.0005 0.0009603781514 0.0003971680942)
(0.0005 0.0009645121682 0.0003971680942)
(0.0005 0.0009682703652 0.0003971680942)
(0.0005 0.0009716869079 0.0003971680942)
(0.0005 0.0009747928559 0.0003971680942)
(0.0005 0.000977616445 0.0003971680942)
(0.0005 0.0009801833441 0.0003971680942)
(0.0005 0.0009825168888 0.0003971680942)
(0.0005 0.0009846382931 0.0003971680942)
(0.0005 0.0009865668424 0.0003971680942)
(0.0005 0.0009883200691 0.0003971680942)
(0.0005 0.0009899139115 0.0003971680942)
(0.0005 0.0009913628592 0.0003971680942)
(0.0005 0.0009926800843 0.0003971680942)
(0.0005 0.0009938775617 0.0003971680942)
(0.0005 0.0009949661775 0.0003971680942)
(0.0005 0.0009959558282 0.0003971680942)
(0.0005 0.0009968555107 0.0003971680942)
(0.0005 0.0009976734039 0.0003971680942)
(0.0005 0.0009984169432 0.0003971680942)
(0.0005 0.000999092888 0.0003971680942)
(0.0005 0.0009997073832 0.0003971680942)
(0.0005 4.572056071e-05 0.0004781434825)
(0.0005 0.0001330052675 0.0004781434826)
(0.0005 0.000212355001 0.0004781434826)
(0.0005 0.0002844911223 0.0004781434825)
(0.0005 0.0003500694144 0.0004781434826)
(0.0005 0.0004096860436 0.0004781434826)
(0.0005 0.0004638829793 0.0004781434826)
(0.0005 0.0005131529208 0.0004781434826)
(0.0005 0.0005579437767 0.0004781434826)
(0.0005 0.0005986627366 0.0004781434826)
(0.0005 0.0006356799729 0.0004781434826)
(0.0005 0.0006693320059 0.0004781434825)
(0.0005 0.0006999247632 0.0004781434826)
(0.0005 0.0007277363606 0.0004781434825)
(0.0005 0.0007530196311 0.0004781434825)
(0.0005 0.0007760044224 0.0004781434826)
(0.0005 0.0007968996872 0.0004781434825)
(0.0005 0.0008158953826 0.0004781434826)
(0.0005 0.0008331641965 0.0004781434826)
(0.0005 0.0008488631183 0.0004781434826)
(0.0005 0.0008631348653 0.0004781434826)
(0.0005 0.0008761091807 0.0004781434825)
(0.0005 0.000887904013 0.0004781434825)
(0.0005 0.0008986265878 0.0004781434825)
(0.0005 0.0009083743831 0.0004781434826)
(0.0005 0.0009172360152 0.0004781434826)
(0.0005 0.0009252920443 0.0004781434826)
(0.0005 0.0009326157071 0.0004781434826)
(0.0005 0.0009392735824 0.0004781434825)
(0.0005 0.0009453261964 0.0004781434825)
(0.0005 0.0009508285727 0.0004781434826)
(0.0005 0.000955830733 0.0004781434825)
(0.0005 0.0009603781514 0.0004781434826)
(0.0005 0.0009645121681 0.0004781434825)
(0.0005 0.0009682703652 0.0004781434826)
(0.0005 0.0009716869079 0.0004781434825)
(0.0005 0.0009747928559 0.0004781434826)
(0.0005 0.000977616445 0.0004781434825)
(0.0005 0.0009801833442 0.0004781434825)
(0.0005 0.0009825168888 0.0004781434826)
(0.0005 0.0009846382931 0.0004781434826)
(0.0005 0.0009865668425 0.0004781434826)
(0.0005 0.0009883200691 0.0004781434825)
(0.0005 0.0009899139115 0.0004781434826)
(0.0005 0.0009913628592 0.0004781434826)
(0.0005 0.0009926800843 0.0004781434826)
(0.0005 0.0009938775617 0.0004781434826)
(0.0005 0.0009949661775 0.0004781434826)
(0.0005 0.0009959558283 0.0004781434825)
(0.0005 0.0009968555108 0.0004781434826)
(0.0005 0.0009976734039 0.0004781434825)
(0.0005 0.0009984169432 0.0004781434826)
(0.0005 0.000999092888 0.0004781434825)
(0.0005 0.0009997073832 0.0004781434825)
(0.0005 4.572056071e-05 0.0005566176787)
(0.0005 0.0001330052675 0.0005566176787)
(0.0005 0.000212355001 0.0005566176787)
(0.0005 0.0002844911223 0.0005566176788)
(0.0005 0.0003500694145 0.0005566176787)
(0.0005 0.0004096860436 0.0005566176788)
(0.0005 0.0004638829793 0.0005566176787)
(0.0005 0.0005131529208 0.0005566176787)
(0.0005 0.0005579437767 0.0005566176787)
(0.0005 0.0005986627366 0.0005566176788)
(0.0005 0.0006356799729 0.0005566176787)
(0.0005 0.0006693320059 0.0005566176788)
(0.0005 0.0006999247631 0.0005566176787)
(0.0005 0.0007277363606 0.0005566176787)
(0.0005 0.0007530196311 0.0005566176787)
(0.0005 0.0007760044224 0.0005566176787)
(0.0005 0.0007968996872 0.0005566176787)
(0.0005 0.0008158953826 0.0005566176787)
(0.0005 0.0008331641965 0.0005566176787)
(0.0005 0.0008488631182 0.0005566176787)
(0.0005 0.0008631348653 0.0005566176788)
(0.0005 0.0008761091807 0.0005566176787)
(0.0005 0.000887904013 0.0005566176787)
(0.0005 0.0008986265878 0.0005566176787)
(0.0005 0.0009083743831 0.0005566176787)
(0.0005 0.0009172360151 0.0005566176787)
(0.0005 0.0009252920443 0.0005566176788)
(0.0005 0.0009326157071 0.0005566176787)
(0.0005 0.0009392735825 0.0005566176787)
(0.0005 0.0009453261964 0.0005566176787)
(0.0005 0.0009508285727 0.0005566176787)
(0.0005 0.000955830733 0.0005566176787)
(0.0005 0.0009603781514 0.0005566176787)
(0.0005 0.0009645121682 0.0005566176788)
(0.0005 0.0009682703652 0.0005566176787)
(0.0005 0.0009716869079 0.0005566176787)
(0.0005 0.0009747928559 0.0005566176787)
(0.0005 0.000977616445 0.0005566176787)
(0.0005 0.0009801833442 0.0005566176787)
(0.0005 0.0009825168889 0.0005566176787)
(0.0005 0.0009846382931 0.0005566176787)
(0.0005 0.0009865668425 0.0005566176787)
(0.0005 0.0009883200691 0.0005566176787)
(0.0005 0.0009899139115 0.0005566176787)
(0.0005 0.0009913628591 0.0005566176788)
(0.0005 0.0009926800843 0.0005566176788)
(0.0005 0.0009938775617 0.0005566176788)
(0.0005 0.0009949661775 0.0005566176787)
(0.0005 0.0009959558283 0.0005566176787)
(0.0005 0.0009968555107 0.0005566176787)
(0.0005 0.000997673404 0.0005566176787)
(0.0005 0.0009984169432 0.0005566176787)
(0.0005 0.0009990928879 0.0005566176787)
(0.0005 0.0009997073832 0.0005566176788)
(0.0005 4.572056071e-05 0.0006326679403)
(0.0005 0.0001330052675 0.0006326679403)
(0.0005 0.000212355001 0.0006326679404)
(0.0005 0.0002844911224 0.0006326679404)
(0.0005 0.0003500694144 0.0006326679403)
(0.0005 0.0004096860436 0.0006326679403)
(0.0005 0.0004638829793 0.0006326679404)
(0.0005 0.0005131529208 0.0006326679404)
(0.0005 0.0005579437767 0.0006326679404)
(0.0005 0.0005986627366 0.0006326679403)
(0.0005 0.0006356799729 0.0006326679403)
(0.0005 0.0006693320059 0.0006326679403)
(0.0005 0.0006999247631 0.0006326679403)
(0.0005 0.0007277363606 0.0006326679403)
(0.0005 0.0007530196311 0.0006326679403)
(0.0005 0.0007760044224 0.0006326679403)
(0.0005 0.0007968996872 0.0006326679403)
(0.0005 0.0008158953826 0.0006326679403)
(0.0005 0.0008331641965 0.0006326679403)
(0.0005 0.0008488631183 0.0006326679403)
(0.0005 0.0008631348653 0.0006326679403)
(0.0005 0.0008761091808 0.0006326679404)
(0.0005 0.000887904013 0.0006326679403)
(0.0005 0.0008986265878 0.0006326679403)
(0.0005 0.0009083743831 0.0006326679403)
(0.0005 0.0009172360151 0.0006326679403)
(0.0005 0.0009252920443 0.0006326679403)
(0.0005 0.0009326157071 0.0006326679403)
(0.0005 0.0009392735824 0.0006326679403)
(0.0005 0.0009453261964 0.0006326679403)
(0.0005 0.0009508285727 0.0006326679403)
(0.0005 0.000955830733 0.0006326679404)
(0.0005 0.0009603781514 0.0006326679403)
(0.0005 0.0009645121681 0.0006326679403)
(0.0005 0.0009682703652 0.0006326679403)
(0.0005 0.0009716869079 0.0006326679403)
(0.0005 0.0009747928559 0.0006326679403)
(0.0005 0.000977616445 0.0006326679403)
(0.0005 0.0009801833442 0.0006326679403)
(0.0005 0.0009825168889 0.0006326679403)
(0.0005 0.0009846382931 0.0006326679403)
(0.0005 0.0009865668425 0.0006326679403)
(0.0005 0.0009883200691 0.0006326679404)
(0.0005 0.0009899139115 0.0006326679403)
(0.0005 0.0009913628592 0.0006326679403)
(0.0005 0.0009926800843 0.0006326679403)
(0.0005 0.0009938775617 0.0006326679403)
(0.0005 0.0009949661775 0.0006326679403)
(0.0005 0.0009959558283 0.0006326679403)
(0.0005 0.0009968555108 0.0006326679404)
(0.0005 0.0009976734039 0.0006326679404)
(0.0005 0.0009984169432 0.0006326679403)
(0.0005 0.000999092888 0.0006326679403)
(0.0005 0.0009997073832 0.0006326679403)
(0.0005 4.572056072e-05 0.0007063691386)
(0.0005 0.0001330052675 0.0007063691386)
(0.0005 0.000212355001 0.0007063691386)
(0.0005 0.0002844911224 0.0007063691386)
(0.0005 0.0003500694144 0.0007063691386)
(0.0005 0.0004096860436 0.0007063691386)
(0.0005 0.0004638829793 0.0007063691386)
(0.0005 0.0005131529208 0.0007063691386)
(0.0005 0.0005579437767 0.0007063691386)
(0.0005 0.0005986627366 0.0007063691386)
(0.0005 0.0006356799729 0.0007063691386)
(0.0005 0.0006693320059 0.0007063691386)
(0.0005 0.0006999247631 0.0007063691386)
(0.0005 0.0007277363607 0.0007063691386)
(0.0005 0.0007530196311 0.0007063691386)
(0.0005 0.0007760044224 0.0007063691386)
(0.0005 0.0007968996872 0.0007063691386)
(0.0005 0.0008158953826 0.0007063691386)
(0.0005 0.0008331641965 0.0007063691386)
(0.0005 0.0008488631182 0.0007063691386)
(0.0005 0.0008631348653 0.0007063691386)
(0.0005 0.0008761091807 0.0007063691386)
(0.0005 0.000887904013 0.0007063691386)
(0.0005 0.0008986265878 0.0007063691386)
(0.0005 0.0009083743831 0.0007063691386)
(0.0005 0.0009172360151 0.0007063691386)
(0.0005 0.0009252920442 0.0007063691386)
(0.0005 0.0009326157071 0.0007063691386)
(0.0005 0.0009392735825 0.0007063691386)
(0.0005 0.0009453261964 0.0007063691386)
(0.0005 0.0009508285727 0.0007063691386)
(0.0005 0.000955830733 0.0007063691386)
(0.0005 0.0009603781514 0.0007063691386)
(0.0005 0.0009645121682 0.0007063691386)
(0.0005 0.0009682703652 0.0007063691386)
(0.0005 0.0009716869079 0.0007063691386)
(0.0005 0.000974792856 0.0007063691386)
(0.0005 0.000977616445 0.0007063691386)
(0.0005 0.0009801833442 0.0007063691386)
(0.0005 0.0009825168889 0.0007063691386)
(0.0005 0.0009846382931 0.0007063691386)
(0.0005 0.0009865668424 0.0007063691386)
(0.0005 0.0009883200691 0.0007063691386)
(0.0005 0.0009899139115 0.0007063691386)
(0.0005 0.0009913628592 0.0007063691386)
(0.0005 0.0009926800843 0.0007063691386)
(0.0005 0.0009938775617 0.0007063691386)
(0.0005 0.0009949661775 0.0007063691386)
(0.0005 0.0009959558283 0.0007063691386)
(0.0005 0.0009968555107 0.0007063691386)
(0.0005 0.0009976734039 0.0007063691386)
(0.0005 0.0009984169432 0.0007063691386)
(0.0005 0.000999092888 0.0007063691386)
(0.0005 0.0009997073832 0.0007063691386)
(0.0005 4.572056072e-05 0.0007777938321)
(0.0005 0.0001330052675 0.0007777938321)
(0.0005 0.000212355001 0.0007777938321)
(0.0005 0.0002844911223 0.0007777938322)
(0.0005 0.0003500694144 0.0007777938321)
(0.0005 0.0004096860436 0.0007777938321)
(0.0005 0.0004638829793 0.0007777938321)
(0.0005 0.0005131529208 0.0007777938321)
(0.0005 0.0005579437767 0.0007777938321)
(0.0005 0.0005986627366 0.0007777938321)
(0.0005 0.0006356799729 0.0007777938322)
(0.0005 0.0006693320059 0.0007777938321)
(0.0005 0.0006999247631 0.0007777938322)
(0.0005 0.0007277363606 0.0007777938321)
(0.0005 0.0007530196311 0.0007777938321)
(0.0005 0.0007760044224 0.0007777938321)
(0.0005 0.0007968996872 0.0007777938321)
(0.0005 0.0008158953826 0.0007777938322)
(0.0005 0.0008331641965 0.0007777938322)
(0.0005 0.0008488631183 0.0007777938322)
(0.0005 0.0008631348653 0.0007777938321)
(0.0005 0.0008761091807 0.0007777938321)
(0.0005 0.000887904013 0.0007777938321)
(0.0005 0.0008986265878 0.0007777938321)
(0.0005 0.0009083743831 0.0007777938321)
(0.0005 0.0009172360152 0.0007777938322)
(0.0005 0.0009252920442 0.0007777938322)
(0.0005 0.0009326157071 0.0007777938321)
(0.0005 0.0009392735825 0.0007777938321)
(0.0005 0.0009453261964 0.0007777938321)
(0.0005 0.0009508285727 0.0007777938322)
(0.0005 0.000955830733 0.0007777938321)
(0.0005 0.0009603781514 0.0007777938322)
(0.0005 0.0009645121682 0.0007777938321)
(0.0005 0.0009682703652 0.0007777938322)
(0.0005 0.0009716869079 0.0007777938322)
(0.0005 0.0009747928559 0.0007777938321)
(0.0005 0.000977616445 0.0007777938321)
(0.0005 0.0009801833442 0.0007777938322)
(0.0005 0.0009825168889 0.0007777938322)
(0.0005 0.0009846382931 0.0007777938322)
(0.0005 0.0009865668425 0.0007777938322)
(0.0005 0.0009883200691 0.0007777938321)
(0.0005 0.0009899139115 0.0007777938321)
(0.0005 0.0009913628591 0.0007777938321)
(0.0005 0.0009926800843 0.0007777938322)
(0.0005 0.0009938775617 0.0007777938321)
(0.0005 0.0009949661775 0.0007777938321)
(0.0005 0.0009959558283 0.0007777938321)
(0.0005 0.0009968555108 0.0007777938321)
(0.0005 0.0009976734039 0.0007777938321)
(0.0005 0.0009984169432 0.0007777938321)
(0.0005 0.0009990928879 0.0007777938321)
(0.0005 0.0009997073832 0.0007777938321)
(0.0005 4.572056071e-05 0.0008470123383)
(0.0005 0.0001330052675 0.0008470123383)
(0.0005 0.000212355001 0.0008470123383)
(0.0005 0.0002844911223 0.0008470123383)
(0.0005 0.0003500694144 0.0008470123383)
(0.0005 0.0004096860436 0.0008470123383)
(0.0005 0.0004638829793 0.0008470123383)
(0.0005 0.0005131529208 0.0008470123383)
(0.0005 0.0005579437767 0.0008470123383)
(0.0005 0.0005986627366 0.0008470123383)
(0.0005 0.0006356799729 0.0008470123383)
(0.0005 0.0006693320059 0.0008470123383)
(0.0005 0.0006999247631 0.0008470123383)
(0.0005 0.0007277363606 0.0008470123383)
(0.0005 0.0007530196311 0.0008470123383)
(0.0005 0.0007760044224 0.0008470123383)
(0.0005 0.0007968996872 0.0008470123383)
(0.0005 0.0008158953826 0.0008470123383)
(0.0005 0.0008331641965 0.0008470123383)
(0.0005 0.0008488631182 0.0008470123383)
(0.0005 0.0008631348653 0.0008470123383)
(0.0005 0.0008761091808 0.0008470123383)
(0.0005 0.000887904013 0.0008470123383)
(0.0005 0.0008986265878 0.0008470123383)
(0.0005 0.0009083743831 0.0008470123383)
(0.0005 0.0009172360151 0.0008470123383)
(0.0005 0.0009252920442 0.0008470123383)
(0.0005 0.0009326157071 0.0008470123383)
(0.0005 0.0009392735824 0.0008470123383)
(0.0005 0.0009453261964 0.0008470123383)
(0.0005 0.0009508285727 0.0008470123383)
(0.0005 0.000955830733 0.0008470123383)
(0.0005 0.0009603781514 0.0008470123383)
(0.0005 0.0009645121682 0.0008470123383)
(0.0005 0.0009682703652 0.0008470123383)
(0.0005 0.0009716869079 0.0008470123383)
(0.0005 0.000974792856 0.0008470123383)
(0.0005 0.000977616445 0.0008470123383)
(0.0005 0.0009801833442 0.0008470123383)
(0.0005 0.0009825168889 0.0008470123383)
(0.0005 0.0009846382931 0.0008470123383)
(0.0005 0.0009865668425 0.0008470123383)
(0.0005 0.0009883200691 0.0008470123383)
(0.0005 0.0009899139115 0.0008470123383)
(0.0005 0.0009913628592 0.0008470123383)
(0.0005 0.0009926800843 0.0008470123383)
(0.0005 0.0009938775617 0.0008470123383)
(0.0005 0.0009949661775 0.0008470123383)
(0.0005 0.0009959558283 0.0008470123383)
(0.0005 0.0009968555108 0.0008470123383)
(0.0005 0.0009976734039 0.0008470123383)
(0.0005 0.0009984169432 0.0008470123383)
(0.0005 0.000999092888 0.0008470123383)
(0.0005 0.0009997073832 0.0008470123383)
(0.0005 4.572056071e-05 0.0009140928024)
(0.0005 0.0001330052675 0.0009140928024)
(0.0005 0.000212355001 0.0009140928024)
(0.0005 0.0002844911223 0.0009140928024)
(0.0005 0.0003500694144 0.0009140928024)
(0.0005 0.0004096860437 0.0009140928024)
(0.0005 0.0004638829793 0.0009140928024)
(0.0005 0.0005131529208 0.0009140928024)
(0.0005 0.0005579437767 0.0009140928024)
(0.0005 0.0005986627366 0.0009140928024)
(0.0005 0.0006356799729 0.0009140928024)
(0.0005 0.0006693320059 0.0009140928024)
(0.0005 0.0006999247631 0.0009140928024)
(0.0005 0.0007277363606 0.0009140928024)
(0.0005 0.0007530196311 0.0009140928024)
(0.0005 0.0007760044224 0.0009140928024)
(0.0005 0.0007968996872 0.0009140928024)
(0.0005 0.0008158953826 0.0009140928024)
(0.0005 0.0008331641965 0.0009140928024)
(0.0005 0.0008488631183 0.0009140928024)
(0.0005 0.0008631348653 0.0009140928024)
(0.0005 0.0008761091807 0.0009140928024)
(0.0005 0.000887904013 0.0009140928024)
(0.0005 0.0008986265878 0.0009140928024)
(0.0005 0.0009083743831 0.0009140928024)
(0.0005 0.0009172360151 0.0009140928024)
(0.0005 0.0009252920442 0.0009140928024)
(0.0005 0.0009326157071 0.0009140928024)
(0.0005 0.0009392735825 0.0009140928024)
(0.0005 0.0009453261964 0.0009140928024)
(0.0005 0.0009508285727 0.0009140928024)
(0.0005 0.000955830733 0.0009140928024)
(0.0005 0.0009603781514 0.0009140928024)
(0.0005 0.0009645121682 0.0009140928024)
(0.0005 0.0009682703652 0.0009140928024)
(0.0005 0.0009716869079 0.0009140928024)
(0.0005 0.0009747928559 0.0009140928024)
(0.0005 0.000977616445 0.0009140928024)
(0.0005 0.0009801833441 0.0009140928024)
(0.0005 0.0009825168888 0.0009140928024)
(0.0005 0.0009846382931 0.0009140928024)
(0.0005 0.0009865668424 0.0009140928024)
(0.0005 0.0009883200691 0.0009140928024)
(0.0005 0.0009899139115 0.0009140928024)
(0.0005 0.0009913628591 0.0009140928024)
(0.0005 0.0009926800843 0.0009140928024)
(0.0005 0.0009938775617 0.0009140928024)
(0.0005 0.0009949661775 0.0009140928024)
(0.0005 0.0009959558283 0.0009140928024)
(0.0005 0.0009968555107 0.0009140928024)
(0.0005 0.0009976734039 0.0009140928024)
(0.0005 0.0009984169432 0.0009140928024)
(0.0005 0.000999092888 0.0009140928024)
(0.0005 0.0009997073832 0.0009140928024)
(0.0005 4.572056071e-05 0.0009791012647)
(0.0005 0.0001330052675 0.0009791012647)
(0.0005 0.000212355001 0.0009791012647)
(0.0005 0.0002844911223 0.0009791012647)
(0.0005 0.0003500694144 0.0009791012647)
(0.0005 0.0004096860436 0.0009791012647)
(0.0005 0.0004638829793 0.0009791012648)
(0.0005 0.0005131529208 0.0009791012647)
(0.0005 0.0005579437767 0.0009791012647)
(0.0005 0.0005986627366 0.0009791012647)
(0.0005 0.0006356799729 0.0009791012647)
(0.0005 0.0006693320059 0.0009791012647)
(0.0005 0.0006999247631 0.0009791012648)
(0.0005 0.0007277363606 0.0009791012647)
(0.0005 0.0007530196311 0.0009791012647)
(0.0005 0.0007760044224 0.0009791012648)
(0.0005 0.0007968996872 0.0009791012647)
(0.0005 0.0008158953826 0.0009791012647)
(0.0005 0.0008331641965 0.0009791012647)
(0.0005 0.0008488631182 0.0009791012647)
(0.0005 0.0008631348653 0.0009791012647)
(0.0005 0.0008761091808 0.0009791012648)
(0.0005 0.000887904013 0.0009791012647)
(0.0005 0.0008986265878 0.0009791012647)
(0.0005 0.0009083743831 0.0009791012647)
(0.0005 0.0009172360151 0.0009791012647)
(0.0005 0.0009252920442 0.0009791012647)
(0.0005 0.0009326157071 0.0009791012647)
(0.0005 0.0009392735825 0.0009791012647)
(0.0005 0.0009453261964 0.0009791012647)
(0.0005 0.0009508285727 0.0009791012647)
(0.0005 0.000955830733 0.0009791012647)
(0.0005 0.0009603781514 0.0009791012647)
(0.0005 0.0009645121682 0.0009791012647)
(0.0005 0.0009682703652 0.0009791012647)
(0.0005 0.000971686908 0.0009791012647)
(0.0005 0.0009747928559 0.0009791012647)
(0.0005 0.000977616445 0.0009791012647)
(0.0005 0.0009801833441 0.0009791012647)
(0.0005 0.0009825168888 0.0009791012647)
(0.0005 0.0009846382931 0.0009791012647)
(0.0005 0.0009865668425 0.0009791012647)
(0.0005 0.0009883200691 0.0009791012647)
(0.0005 0.0009899139115 0.0009791012648)
(0.0005 0.0009913628592 0.0009791012647)
(0.0005 0.0009926800843 0.0009791012647)
(0.0005 0.0009938775617 0.0009791012647)
(0.0005 0.0009949661775 0.0009791012647)
(0.0005 0.0009959558283 0.0009791012647)
(0.0005 0.0009968555107 0.0009791012648)
(0.0005 0.000997673404 0.0009791012647)
(0.0005 0.0009984169432 0.0009791012647)
(0.0005 0.000999092888 0.0009791012647)
(0.0005 0.0009997073832 0.0009791012647)
(0.0005 4.572056072e-05 0.001042101727)
(0.0005 0.0001330052675 0.001042101727)
(0.0005 0.000212355001 0.001042101726)
(0.0005 0.0002844911223 0.001042101726)
(0.0005 0.0003500694144 0.001042101727)
(0.0005 0.0004096860436 0.001042101727)
(0.0005 0.0004638829793 0.001042101726)
(0.0005 0.0005131529208 0.001042101727)
(0.0005 0.0005579437767 0.001042101727)
(0.0005 0.0005986627366 0.001042101727)
(0.0005 0.0006356799729 0.001042101727)
(0.0005 0.0006693320059 0.001042101727)
(0.0005 0.0006999247631 0.001042101726)
(0.0005 0.0007277363606 0.001042101726)