/*--------------------------------*- C++ -*----------------------------------*\
  =========                 |
  \\      /  F ield         | OpenFOAM: The Open Source CFD Toolbox
   \\    /   O peration     | Website:  https://openfoam.org
    \\  /    A nd           | Version:  7
     \\/     M anipulation  |
\*---------------------------------------------------------------------------*/
FoamFile
{
    version     2.0;
    format      ascii;
    class       volScalarField;
    location    "constant";
    object      Cy;
}
// * * * * * * * * * * * * * * * * * * * * * * * * * * * * * * * * * * * * * //

dimensions      [0 1 0 0 0 0 0];

internalField   nonuniform List<scalar> 
8748
(
4.572056072e-05
0.0001330052675
0.000212355001
0.0002844911224
0.0003500694144
0.0004096860436
0.0004638829793
0.0005131529208
0.0005579437767
0.0005986627366
0.0006356799729
0.0006693320059
0.0006999247631
0.0007277363606
0.0007530196311
0.0007760044224
0.0007968996872
0.0008158953826
0.0008331641965
0.0008488631182
0.0008631348653
0.0008761091807
0.000887904013
0.0008986265878
0.0009083743831
0.0009172360152
0.0009252920443
0.0009326157071
0.0009392735825
0.0009453261964
0.0009508285727
0.000955830733
0.0009603781514
0.0009645121682
0.0009682703652
0.0009716869079
0.0009747928559
0.000977616445
0.0009801833442
0.0009825168888
0.0009846382931
0.0009865668425
0.0009883200691
0.0009899139115
0.0009913628592
0.0009926800843
0.0009938775617
0.0009949661775
0.0009959558283
0.0009968555108
0.0009976734039
0.0009984169432
0.000999092888
0.0009997073832
4.572056072e-05
0.0001330052675
0.000212355001
0.0002844911223
0.0003500694144
0.0004096860436
0.0004638829793
0.0005131529208
0.0005579437767
0.0005986627366
0.0006356799729
0.0006693320059
0.0006999247631
0.0007277363606
0.0007530196311
0.0007760044224
0.0007968996872
0.0008158953826
0.0008331641965
0.0008488631183
0.0008631348653
0.0008761091808
0.000887904013
0.0008986265878
0.0009083743831
0.0009172360151
0.0009252920442
0.0009326157071
0.0009392735825
0.0009453261964
0.0009508285727
0.000955830733
0.0009603781514
0.0009645121681
0.0009682703652
0.0009716869079
0.0009747928559
0.000977616445
0.0009801833442
0.0009825168889
0.0009846382931
0.0009865668425
0.0009883200691
0.0009899139115
0.0009913628592
0.0009926800843
0.0009938775617
0.0009949661775
0.0009959558283
0.0009968555107
0.0009976734039
0.0009984169432
0.0009990928879
0.0009997073832
4.572056072e-05
0.0001330052675
0.000212355001
0.0002844911224
0.0003500694144
0.0004096860436
0.0004638829793
0.0005131529208
0.0005579437767
0.0005986627366
0.0006356799729
0.0006693320059
0.0006999247631
0.0007277363606
0.0007530196311
0.0007760044224
0.0007968996872
0.0008158953826
0.0008331641965
0.0008488631182
0.0008631348653
0.0008761091807
0.000887904013
0.0008986265878
0.0009083743831
0.0009172360151
0.0009252920443
0.0009326157071
0.0009392735825
0.0009453261964
0.0009508285727
0.000955830733
0.0009603781514
0.0009645121681
0.0009682703652
0.0009716869079
0.0009747928559
0.000977616445
0.0009801833442
0.0009825168889
0.0009846382931
0.0009865668425
0.0009883200691
0.0009899139115
0.0009913628592
0.0009926800843
0.0009938775617
0.0009949661775
0.0009959558283
0.0009968555108
0.0009976734039
0.0009984169432
0.000999092888
0.0009997073832
4.572056071e-05
0.0001330052675
0.000212355001
0.0002844911223
0.0003500694144
0.0004096860436
0.0004638829793
0.0005131529208
0.0005579437767
0.0005986627366
0.0006356799729
0.0006693320059
0.0006999247631
0.0007277363607
0.0007530196311
0.0007760044224
0.0007968996872
0.0008158953826
0.0008331641965
0.0008488631183
0.0008631348653
0.0008761091807
0.000887904013
0.0008986265878
0.0009083743831
0.0009172360151
0.0009252920442
0.0009326157071
0.0009392735825
0.0009453261964
0.0009508285727
0.000955830733
0.0009603781514
0.0009645121682
0.0009682703652
0.000971686908
0.000974792856
0.000977616445
0.0009801833442
0.0009825168889
0.0009846382931
0.0009865668425
0.0009883200691
0.0009899139115
0.0009913628592
0.0009926800843
0.0009938775617
0.0009949661775
0.0009959558283
0.0009968555107
0.0009976734039
0.0009984169432
0.0009990928879
0.0009997073832
4.572056072e-05
0.0001330052675
0.000212355001
0.0002844911223
0.0003500694144
0.0004096860436
0.0004638829793
0.0005131529208
0.0005579437767
0.0005986627366
0.0006356799729
0.0006693320059
0.0006999247631
0.0007277363606
0.0007530196311
0.0007760044224
0.0007968996872
0.0008158953826
0.0008331641965
0.0008488631182
0.0008631348653
0.0008761091808
0.000887904013
0.0008986265878
0.0009083743831
0.0009172360151
0.0009252920442
0.0009326157071
0.0009392735824
0.0009453261964
0.0009508285727
0.000955830733
0.0009603781514
0.0009645121682
0.0009682703652
0.0009716869079
0.0009747928559
0.000977616445
0.0009801833441
0.0009825168888
0.0009846382931
0.0009865668424
0.0009883200691
0.0009899139115
0.0009913628592
0.0009926800843
0.0009938775617
0.0009949661775
0.0009959558282
0.0009968555107
0.0009976734039
0.0009984169432
0.000999092888
0.0009997073832
4.572056071e-05
0.0001330052675
0.000212355001
0.0002844911223
0.0003500694144
0.0004096860436
0.0004638829793
0.0005131529208
0.0005579437767
0.0005986627366
0.0006356799729
0.0006693320059
0.0006999247632
0.0007277363606
0.0007530196311
0.0007760044224
0.0007968996872
0.0008158953826
0.0008331641965
0.0008488631183
0.0008631348653
0.0008761091807
0.000887904013
0.0008986265878
0.0009083743831
0.0009172360152
0.0009252920443
0.0009326157071
0.0009392735824
0.0009453261964
0.0009508285727
0.000955830733
0.0009603781514
0.0009645121681
0.0009682703652
0.0009716869079
0.0009747928559
0.000977616445
0.0009801833442
0.0009825168888
0.0009846382931
0.0009865668425
0.0009883200691
0.0009899139115
0.0009913628592
0.0009926800843
0.0009938775617
0.0009949661775
0.0009959558283
0.0009968555108
0.0009976734039
0.0009984169432
0.000999092888
0.0009997073832
4.572056071e-05
0.0001330052675
0.000212355001
0.0002844911223
0.0003500694145
0.0004096860436
0.0004638829793
0.0005131529208
0.0005579437767
0.0005986627366
0.0006356799729
0.0006693320059
0.0006999247631
0.0007277363606
0.0007530196311
0.0007760044224
0.0007968996872
0.0008158953826
0.0008331641965
0.0008488631182
0.0008631348653
0.0008761091807
0.000887904013
0.0008986265878
0.0009083743831
0.0009172360151
0.0009252920443
0.0009326157071
0.0009392735825
0.0009453261964
0.0009508285727
0.000955830733
0.0009603781514
0.0009645121682
0.0009682703652
0.0009716869079
0.0009747928559
0.000977616445
0.0009801833442
0.0009825168889
0.0009846382931
0.0009865668425
0.0009883200691
0.0009899139115
0.0009913628591
0.0009926800843
0.0009938775617
0.0009949661775
0.0009959558283
0.0009968555107
0.000997673404
0.0009984169432
0.0009990928879
0.0009997073832
4.572056071e-05
0.0001330052675
0.000212355001
0.0002844911224
0.0003500694144
0.0004096860436
0.0004638829793
0.0005131529208
0.0005579437767
0.0005986627366
0.0006356799729
0.0006693320059
0.0006999247631
0.0007277363606
0.0007530196311
0.0007760044224
0.0007968996872
0.0008158953826
0.0008331641965
0.0008488631183
0.0008631348653
0.0008761091808
0.000887904013
0.0008986265878
0.0009083743831
0.0009172360151
0.0009252920443
0.0009326157071
0.0009392735824
0.0009453261964
0.0009508285727
0.000955830733
0.0009603781514
0.0009645121681
0.0009682703652
0.0009716869079
0.0009747928559
0.000977616445
0.0009801833442
0.0009825168889
0.0009846382931
0.0009865668425
0.0009883200691
0.0009899139115
0.0009913628592
0.0009926800843
0.0009938775617
0.0009949661775
0.0009959558283
0.0009968555108
0.0009976734039
0.0009984169432
0.000999092888
0.0009997073832
4.572056072e-05
0.0001330052675
0.000212355001
0.0002844911224
0.0003500694144
0.0004096860436
0.0004638829793
0.0005131529208
0.0005579437767
0.0005986627366
0.0006356799729
0.0006693320059
0.0006999247631
0.0007277363607
0.0007530196311
0.0007760044224
0.0007968996872
0.0008158953826
0.0008331641965
0.0008488631182
0.0008631348653
0.0008761091807
0.000887904013
0.0008986265878
0.0009083743831
0.0009172360151
0.0009252920442
0.0009326157071
0.0009392735825
0.0009453261964
0.0009508285727
0.000955830733
0.0009603781514
0.0009645121682
0.0009682703652
0.0009716869079
0.000974792856
0.000977616445
0.0009801833442
0.0009825168889
0.0009846382931
0.0009865668424
0.0009883200691
0.0009899139115
0.0009913628592
0.0009926800843
0.0009938775617
0.0009949661775
0.0009959558283
0.0009968555107
0.0009976734039
0.0009984169432
0.000999092888
0.0009997073832
4.572056072e-05
0.0001330052675
0.000212355001
0.0002844911223
0.0003500694144
0.0004096860436
0.0004638829793
0.0005131529208
0.0005579437767
0.0005986627366
0.0006356799729
0.0006693320059
0.0006999247631
0.0007277363606
0.0007530196311
0.0007760044224
0.0007968996872
0.0008158953826
0.0008331641965
0.0008488631183
0.0008631348653
0.0008761091807
0.000887904013
0.0008986265878
0.0009083743831
0.0009172360152
0.0009252920442
0.0009326157071
0.0009392735825
0.0009453261964
0.0009508285727
0.000955830733
0.0009603781514
0.0009645121682
0.0009682703652
0.0009716869079
0.0009747928559
0.000977616445
0.0009801833442
0.0009825168889
0.0009846382931
0.0009865668425
0.0009883200691
0.0009899139115
0.0009913628591
0.0009926800843
0.0009938775617
0.0009949661775
0.0009959558283
0.0009968555108
0.0009976734039
0.0009984169432
0.0009990928879
0.0009997073832
4.572056071e-05
0.0001330052675
0.000212355001
0.0002844911223
0.0003500694144
0.0004096860436
0.0004638829793
0.0005131529208
0.0005579437767
0.0005986627366
0.0006356799729
0.0006693320059
0.0006999247631
0.0007277363606
0.0007530196311
0.0007760044224
0.0007968996872
0.0008158953826
0.0008331641965
0.0008488631182
0.0008631348653
0.0008761091808
0.000887904013
0.0008986265878
0.0009083743831
0.0009172360151
0.0009252920442
0.0009326157071
0.0009392735824
0.0009453261964
0.0009508285727
0.000955830733
0.0009603781514
0.0009645121682
0.0009682703652
0.0009716869079
0.000974792856
0.000977616445
0.0009801833442
0.0009825168889
0.0009846382931
0.0009865668425
0.0009883200691
0.0009899139115
0.0009913628592
0.0009926800843
0.0009938775617
0.0009949661775
0.0009959558283
0.0009968555108
0.0009976734039
0.0009984169432
0.000999092888
0.0009997073832
4.572056071e-05
0.0001330052675
0.000212355001
0.0002844911223
0.0003500694144
0.0004096860437
0.0004638829793
0.0005131529208
0.0005579437767
0.0005986627366
0.0006356799729
0.0006693320059
0.0006999247631
0.0007277363606
0.0007530196311
0.0007760044224
0.0007968996872
0.0008158953826
0.0008331641965
0.0008488631183
0.0008631348653
0.0008761091807
0.000887904013
0.0008986265878
0.0009083743831
0.0009172360151
0.0009252920442
0.0009326157071
0.0009392735825
0.0009453261964
0.0009508285727
0.000955830733
0.0009603781514
0.0009645121682
0.0009682703652
0.0009716869079
0.0009747928559
0.000977616445
0.0009801833441
0.0009825168888
0.0009846382931
0.0009865668424
0.0009883200691
0.0009899139115
0.0009913628591
0.0009926800843
0.0009938775617
0.0009949661775
0.0009959558283
0.0009968555107
0.0009976734039
0.0009984169432
0.000999092888
0.0009997073832
4.572056071e-05
0.0001330052675
0.000212355001
0.0002844911223
0.0003500694144
0.0004096860436
0.0004638829793
0.0005131529208
0.0005579437767
0.0005986627366
0.0006356799729
0.0006693320059
0.0006999247631
0.0007277363606
0.0007530196311
0.0007760044224
0.0007968996872
0.0008158953826
0.0008331641965
0.0008488631182
0.0008631348653
0.0008761091808
0.000887904013
0.0008986265878
0.0009083743831
0.0009172360151
0.0009252920442
0.0009326157071
0.0009392735825
0.0009453261964
0.0009508285727
0.000955830733
0.0009603781514
0.0009645121682
0.0009682703652
0.000971686908
0.0009747928559
0.000977616445
0.0009801833441
0.0009825168888
0.0009846382931
0.0009865668425
0.0009883200691
0.0009899139115
0.0009913628592
0.0009926800843
0.0009938775617
0.0009949661775
0.0009959558283
0.0009968555107
0.000997673404
0.0009984169432
0.000999092888
0.0009997073832
4.572056072e-05
0.0001330052675
0.000212355001
0.0002844911223
0.0003500694144
0.0004096860436
0.0004638829793
0.0005131529208
0.0005579437767
0.0005986627366
0.0006356799729
0.0006693320059
0.0006999247631
0.0007277363606
0.0007530196311
0.0007760044224
0.0007968996872
0.0008158953826
0.0008331641965
0.0008488631183
0.0008631348653
0.0008761091808
0.000887904013
0.0008986265878
0.0009083743831
0.0009172360151
0.0009252920443
0.0009326157071
0.0009392735825
0.0009453261964
0.0009508285727
0.000955830733
0.0009603781514
0.0009645121682
0.0009682703652
0.000971686908
0.0009747928559
0.000977616445
0.0009801833441
0.0009825168889
0.0009846382931
0.0009865668425
0.0009883200691
0.0009899139115
0.0009913628592
0.0009926800843
0.0009938775617
0.0009949661775
0.0009959558283
0.0009968555107
0.0009976734039
0.0009984169432
0.0009990928879
0.0009997073832
4.572056072e-05
0.0001330052675
0.000212355001
0.0002844911223
0.0003500694144
0.0004096860436
0.0004638829793
0.0005131529208
0.0005579437767
0.0005986627366
0.0006356799729
0.0006693320059
0.0006999247631
0.0007277363606
0.0007530196311
0.0007760044224
0.0007968996872
0.0008158953826
0.0008331641965
0.0008488631183
0.0008631348653
0.0008761091808
0.000887904013
0.0008986265878
0.0009083743831
0.0009172360152
0.0009252920442
0.0009326157071
0.0009392735825
0.0009453261964
0.0009508285727
0.000955830733
0.0009603781514
0.0009645121682
0.0009682703652
0.0009716869079
0.0009747928559
0.000977616445
0.0009801833441
0.0009825168889
0.0009846382931
0.0009865668425
0.0009883200691
0.0009899139115
0.0009913628592
0.0009926800843
0.0009938775617
0.0009949661775
0.0009959558282
0.0009968555107
0.000997673404
0.0009984169432
0.000999092888
0.0009997073832
4.572056072e-05
0.0001330052675
0.000212355001
0.0002844911223
0.0003500694144
0.0004096860436
0.0004638829793
0.0005131529208
0.0005579437767
0.0005986627366
0.0006356799729
0.0006693320059
0.0006999247631
0.0007277363606
0.0007530196311
0.0007760044224
0.0007968996872
0.0008158953826
0.0008331641965
0.0008488631182
0.0008631348653
0.0008761091807
0.000887904013
0.0008986265878
0.0009083743831
0.0009172360151
0.0009252920442
0.0009326157071
0.0009392735825
0.0009453261964
0.0009508285727
0.000955830733
0.0009603781514
0.0009645121681
0.0009682703652
0.0009716869079
0.000974792856
0.000977616445
0.0009801833441
0.0009825168889
0.0009846382931
0.0009865668425
0.0009883200691
0.0009899139115
0.0009913628591
0.0009926800843
0.0009938775617
0.0009949661775
0.0009959558283
0.0009968555108
0.0009976734039
0.0009984169432
0.000999092888
0.0009997073832
4.572056071e-05
0.0001330052675
0.000212355001
0.0002844911224
0.0003500694144
0.0004096860436
0.0004638829793
0.0005131529208
0.0005579437767
0.0005986627366
0.0006356799729
0.0006693320059
0.0006999247631
0.0007277363606
0.0007530196311
0.0007760044224
0.0007968996872
0.0008158953826
0.0008331641965
0.0008488631182
0.0008631348653
0.0008761091807
0.000887904013
0.0008986265878
0.0009083743831
0.0009172360151
0.0009252920442
0.0009326157071
0.0009392735825
0.0009453261964
0.0009508285727
0.000955830733
0.0009603781514
0.0009645121682
0.0009682703652
0.0009716869079
0.000974792856
0.000977616445
0.0009801833442
0.0009825168889
0.0009846382931
0.0009865668424
0.0009883200691
0.0009899139115
0.0009913628592
0.0009926800843
0.0009938775617
0.0009949661775
0.0009959558283
0.0009968555108
0.000997673404
0.0009984169432
0.000999092888
0.0009997073832
4.572056072e-05
0.0001330052675
0.000212355001
0.0002844911224
0.0003500694144
0.0004096860436
0.0004638829793
0.0005131529208
0.0005579437767
0.0005986627366
0.0006356799729
0.0006693320059
0.0006999247631
0.0007277363606
0.0007530196311
0.0007760044224
0.0007968996872
0.0008158953826
0.0008331641965
0.0008488631182
0.0008631348653
0.0008761091808
0.000887904013
0.0008986265878
0.0009083743831
0.0009172360152
0.0009252920443
0.0009326157071
0.0009392735824
0.0009453261964
0.0009508285727
0.000955830733
0.0009603781514
0.0009645121682
0.0009682703652
0.0009716869079
0.0009747928559
0.000977616445
0.0009801833442
0.0009825168889
0.0009846382931
0.0009865668425
0.0009883200691
0.0009899139115
0.0009913628592
0.0009926800843
0.0009938775617
0.0009949661775
0.0009959558283
0.0009968555108
0.000997673404
0.0009984169432
0.000999092888
0.0009997073832
4.572056072e-05
0.0001330052675
0.000212355001
0.0002844911223
0.0003500694144
0.0004096860436
0.0004638829793
0.0005131529208
0.0005579437767
0.0005986627366
0.0006356799729
0.0006693320059
0.0006999247631
0.0007277363606
0.0007530196311
0.0007760044224
0.0007968996872
0.0008158953826
0.0008331641965
0.0008488631183
0.0008631348653
0.0008761091807
0.000887904013
0.0008986265878
0.0009083743831
0.0009172360151
0.0009252920442
0.0009326157071
0.0009392735824
0.0009453261964
0.0009508285727
0.000955830733
0.0009603781514
0.0009645121682
0.0009682703652
0.0009716869079
0.000974792856
0.000977616445
0.0009801833442
0.0009825168889
0.0009846382931
0.0009865668425
0.0009883200691
0.0009899139115
0.0009913628592
0.0009926800843
0.0009938775617
0.0009949661775
0.0009959558283
0.0009968555108
0.0009976734039
0.0009984169432
0.000999092888
0.0009997073832
4.572056072e-05
0.0001330052675
0.000212355001
0.0002844911223
0.0003500694144
0.0004096860436
0.0004638829793
0.0005131529208
0.0005579437767
0.0005986627366
0.0006356799729
0.0006693320059
0.0006999247632
0.0007277363606
0.0007530196311
0.0007760044224
0.0007968996872
0.0008158953826
0.0008331641965
0.0008488631183
0.0008631348653
0.0008761091808
0.000887904013
0.0008986265878
0.0009083743831
0.0009172360152
0.0009252920442
0.0009326157071
0.0009392735825
0.0009453261964
0.0009508285727
0.000955830733
0.0009603781514
0.0009645121681
0.0009682703652
0.0009716869079
0.0009747928559
0.000977616445
0.0009801833441
0.0009825168889
0.0009846382931
0.0009865668425
0.0009883200691
0.0009899139115
0.0009913628592
0.0009926800843
0.0009938775617
0.0009949661775
0.0009959558283
0.0009968555107
0.000997673404
0.0009984169432
0.000999092888
0.0009997073832
4.572056072e-05
0.0001330052675
0.000212355001
0.0002844911224
0.0003500694144
0.0004096860436
0.0004638829793
0.0005131529208
0.0005579437767
0.0005986627366
0.0006356799729
0.0006693320059
0.0006999247631
0.0007277363606
0.0007530196311
0.0007760044224
0.0007968996873
0.0008158953826
0.0008331641965
0.0008488631183
0.0008631348653
0.0008761091807
0.000887904013
0.0008986265878
0.0009083743831
0.0009172360151
0.0009252920442
0.0009326157071
0.0009392735824
0.0009453261964
0.0009508285727
0.000955830733
0.0009603781514
0.0009645121682
0.0009682703652
0.0009716869079
0.0009747928559
0.000977616445
0.0009801833442
0.0009825168889
0.0009846382931
0.0009865668425
0.0009883200691
0.0009899139115
0.0009913628592
0.0009926800843
0.0009938775617
0.0009949661775
0.0009959558282
0.0009968555107
0.000997673404
0.0009984169432
0.0009990928879
0.0009997073832
4.572056072e-05
0.0001330052675
0.000212355001
0.0002844911223
0.0003500694144
0.0004096860436
0.0004638829793
0.0005131529208
0.0005579437767
0.0005986627366
0.0006356799729
0.0006693320059
0.0006999247632
0.0007277363606
0.0007530196311
0.0007760044224
0.0007968996872
0.0008158953826
0.0008331641965
0.0008488631183
0.0008631348653
0.0008761091807
0.000887904013
0.0008986265878
0.0009083743831
0.0009172360152
0.0009252920442
0.0009326157071
0.0009392735825
0.0009453261964
0.0009508285727
0.000955830733
0.0009603781514
0.0009645121682
0.0009682703652
0.000971686908
0.0009747928559
0.000977616445
0.0009801833441
0.0009825168889
0.0009846382931
0.0009865668425
0.0009883200691
0.0009899139115
0.0009913628592
0.0009926800843
0.0009938775617
0.0009949661775
0.0009959558283
0.0009968555108
0.0009976734039
0.0009984169432
0.000999092888
0.0009997073832
4.572056071e-05
0.0001330052675
0.000212355001
0.0002844911223
0.0003500694144
0.0004096860436
0.0004638829793
0.0005131529208
0.0005579437767
0.0005986627366
0.0006356799729
0.0006693320059
0.0006999247631
0.0007277363606
0.0007530196311
0.0007760044224
0.0007968996872
0.0008158953826
0.0008331641965
0.0008488631182
0.0008631348653
0.0008761091808
0.000887904013
0.0008986265878
0.0009083743831
0.0009172360151
0.0009252920442
0.0009326157071
0.0009392735824
0.0009453261964
0.0009508285727
0.000955830733
0.0009603781514
0.0009645121682
0.0009682703652
0.0009716869079
0.0009747928559
0.000977616445
0.0009801833441
0.0009825168889
0.0009846382931
0.0009865668425
0.0009883200691
0.0009899139115
0.0009913628592
0.0009926800843
0.0009938775617
0.0009949661775
0.0009959558282
0.0009968555107
0.0009976734039
0.0009984169432
0.000999092888
0.0009997073832
4.572056072e-05
0.0001330052675
0.000212355001
0.0002844911223
0.0003500694144
0.0004096860436
0.0004638829793
0.0005131529208
0.0005579437767
0.0005986627366
0.0006356799729
0.0006693320059
0.0006999247631
0.0007277363606
0.0007530196311
0.0007760044224
0.0007968996872
0.0008158953826
0.0008331641965
0.0008488631183
0.0008631348653
0.0008761091807
0.000887904013
0.0008986265878
0.0009083743831
0.0009172360152
0.0009252920442
0.0009326157071
0.0009392735825
0.0009453261964
0.0009508285727
0.000955830733
0.0009603781514
0.0009645121681
0.0009682703652
0.0009716869079
0.0009747928559
0.000977616445
0.0009801833441
0.0009825168889
0.0009846382931
0.0009865668425
0.0009883200691
0.0009899139115
0.0009913628592
0.0009926800843
0.0009938775617
0.0009949661775
0.0009959558283
0.0009968555107
0.000997673404
0.0009984169432
0.0009990928879
0.0009997073832
4.572056072e-05
0.0001330052675
0.000212355001
0.0002844911224
0.0003500694145
0.0004096860436
0.0004638829793
0.0005131529208
0.0005579437767
0.0005986627366
0.0006356799729
0.0006693320059
0.0006999247631
0.0007277363606
0.0007530196311
0.0007760044224
0.0007968996872
0.0008158953826
0.0008331641965
0.0008488631182
0.0008631348653
0.0008761091807
0.000887904013
0.0008986265878
0.0009083743831
0.0009172360152
0.0009252920442
0.0009326157071
0.0009392735825
0.0009453261964
0.0009508285727
0.000955830733
0.0009603781514
0.0009645121682
0.0009682703652
0.0009716869079
0.0009747928559
0.000977616445
0.0009801833441
0.0009825168889
0.0009846382931
0.0009865668425
0.0009883200691
0.0009899139115
0.0009913628592
0.0009926800843
0.0009938775617
0.0009949661775
0.0009959558283
0.0009968555108
0.000997673404
0.0009984169432
0.000999092888
0.0009997073832
4.572056071e-05
0.0001330052675
0.000212355001
0.0002844911223
0.0003500694144
0.0004096860436
0.0004638829793
0.0005131529208
0.0005579437767
0.0005986627366
0.0006356799729
0.0006693320059
0.0006999247631
0.0007277363606
0.0007530196311
0.0007760044224
0.0007968996872
0.0008158953826
0.0008331641965
0.0008488631182
0.0008631348653
0.0008761091807
0.000887904013
0.0008986265878
0.0009083743831
0.0009172360151
0.0009252920443
0.0009326157071
0.0009392735825
0.0009453261964
0.0009508285727
0.000955830733
0.0009603781514
0.0009645121682
0.0009682703652
0.0009716869079
0.0009747928559
0.000977616445
0.0009801833442
0.0009825168889
0.0009846382931
0.0009865668425
0.0009883200691
0.0009899139115
0.0009913628591
0.0009926800843
0.0009938775617
0.0009949661775
0.0009959558282
0.0009968555108
0.000997673404
0.0009984169432
0.000999092888
0.0009997073832
4.572056072e-05
0.0001330052675
0.000212355001
0.0002844911223
0.0003500694144
0.0004096860437
0.0004638829793
0.0005131529208
0.0005579437767
0.0005986627366
0.0006356799729
0.0006693320059
0.0006999247631
0.0007277363606
0.0007530196311
0.0007760044224
0.0007968996872
0.0008158953826
0.0008331641965
0.0008488631183
0.0008631348653
0.0008761091807
0.000887904013
0.0008986265878
0.0009083743831
0.0009172360151
0.0009252920442
0.0009326157071
0.0009392735825
0.0009453261964
0.0009508285727
0.000955830733
0.0009603781514
0.0009645121681
0.0009682703652
0.0009716869079
0.000974792856
0.000977616445
0.0009801833442
0.0009825168888
0.0009846382931
0.0009865668425
0.0009883200691
0.0009899139115
0.0009913628592
0.0009926800843
0.0009938775617
0.0009949661775
0.0009959558283
0.0009968555108
0.0009976734039
0.0009984169432
0.000999092888
0.0009997073832
4.572056071e-05
0.0001330052675
0.000212355001
0.0002844911223
0.0003500694144
0.0004096860437
0.0004638829793
0.0005131529208
0.0005579437767
0.0005986627366
0.0006356799729
0.0006693320059
0.0006999247631
0.0007277363606
0.0007530196311
0.0007760044224
0.0007968996872
0.0008158953826
0.0008331641965
0.0008488631183
0.0008631348653
0.0008761091807
0.000887904013
0.0008986265878
0.0009083743831
0.0009172360151
0.0009252920442
0.0009326157071
0.0009392735825
0.0009453261964
0.0009508285727
0.000955830733
0.0009603781514
0.0009645121681
0.0009682703652
0.000971686908
0.0009747928559
0.000977616445
0.0009801833442
0.0009825168889
0.0009846382931
0.0009865668425
0.0009883200691
0.0009899139115
0.0009913628592
0.0009926800843
0.0009938775617
0.0009949661775
0.0009959558283
0.0009968555107
0.0009976734039
0.0009984169432
0.000999092888
0.0009997073832
4.572056072e-05
0.0001330052675
0.000212355001
0.0002844911223
0.0003500694145
0.0004096860436
0.0004638829793
0.0005131529208
0.0005579437767
0.0005986627366
0.0006356799729
0.0006693320059
0.0006999247631
0.0007277363606
0.0007530196311
0.0007760044224
0.0007968996872
0.0008158953826
0.0008331641965
0.0008488631183
0.0008631348653
0.0008761091807
0.000887904013
0.0008986265878
0.0009083743831
0.0009172360151
0.0009252920442
0.0009326157071
0.0009392735825
0.0009453261964
0.0009508285727
0.000955830733
0.0009603781514
0.0009645121682
0.0009682703652
0.0009716869079
0.0009747928559
0.000977616445
0.0009801833441
0.0009825168889
0.0009846382931
0.0009865668425
0.0009883200691
0.0009899139115
0.0009913628592
0.0009926800843
0.0009938775617
0.0009949661775
0.0009959558283
0.0009968555107
0.000997673404
0.0009984169432
0.000999092888
0.0009997073832
4.572056072e-05
0.0001330052675
0.000212355001
0.0002844911224
0.0003500694145
0.0004096860436
0.0004638829793
0.0005131529208
0.0005579437767
0.0005986627366
0.0006356799729
0.0006693320059
0.0006999247632
0.0007277363606
0.0007530196311
0.0007760044224
0.0007968996872
0.0008158953826
0.0008331641965
0.0008488631182
0.0008631348653
0.0008761091808
0.000887904013
0.0008986265878
0.0009083743831
0.0009172360152
0.0009252920443
0.0009326157071
0.0009392735825
0.0009453261964
0.0009508285727
0.000955830733
0.0009603781514
0.0009645121682
0.0009682703652
0.000971686908
0.0009747928559
0.000977616445
0.0009801833442
0.0009825168889
0.0009846382931
0.0009865668425
0.0009883200691
0.0009899139115
0.0009913628592
0.0009926800843
0.0009938775617
0.0009949661775
0.0009959558283
0.0009968555108
0.000997673404
0.0009984169432
0.000999092888
0.0009997073832
4.572056072e-05
0.0001330052675
0.000212355001
0.0002844911223
0.0003500694144
0.0004096860436
0.0004638829793
0.0005131529208
0.0005579437767
0.0005986627366
0.0006356799729
0.0006693320059
0.0006999247631
0.0007277363606
0.0007530196311
0.0007760044224
0.0007968996872
0.0008158953826
0.0008331641965
0.0008488631182
0.0008631348653
0.0008761091808
0.000887904013
0.0008986265878
0.0009083743831
0.0009172360151
0.0009252920442
0.0009326157071
0.0009392735825
0.0009453261964
0.0009508285727
0.000955830733
0.0009603781514
0.0009645121682
0.0009682703652
0.0009716869079
0.0009747928559
0.000977616445
0.0009801833442
0.0009825168888
0.0009846382931
0.0009865668425
0.0009883200691
0.0009899139115
0.0009913628592
0.0009926800843
0.0009938775617
0.0009949661775
0.0009959558283
0.0009968555107
0.0009976734039
0.0009984169432
0.000999092888
0.0009997073832
4.572056071e-05
0.0001330052675
0.000212355001
0.0002844911223
0.0003500694144
0.0004096860436
0.0004638829793
0.0005131529208
0.0005579437767
0.0005986627366
0.0006356799729
0.0006693320059
0.0006999247631
0.0007277363606
0.0007530196311
0.0007760044224
0.0007968996872
0.0008158953826
0.0008331641965
0.0008488631183
0.0008631348653
0.0008761091807
0.000887904013
0.0008986265878
0.0009083743831
0.0009172360151
0.0009252920442
0.0009326157071
0.0009392735824
0.0009453261964
0.0009508285727
0.000955830733
0.0009603781514
0.0009645121682
0.0009682703652
0.0009716869079
0.0009747928559
0.000977616445
0.0009801833441
0.0009825168888
0.0009846382931
0.0009865668425
0.0009883200691
0.0009899139115
0.0009913628592
0.0009926800843
0.0009938775617
0.0009949661775
0.0009959558283
0.0009968555108
0.000997673404
0.0009984169432
0.000999092888
0.0009997073832
4.572056071e-05
0.0001330052675
0.000212355001
0.0002844911223
0.0003500694145
0.0004096860436
0.0004638829793
0.0005131529208
0.0005579437767
0.0005986627366
0.0006356799729
0.0006693320059
0.0006999247631
0.0007277363606
0.0007530196311
0.0007760044224
0.0007968996872
0.0008158953826
0.0008331641965
0.0008488631183
0.0008631348653
0.0008761091807
0.000887904013
0.0008986265878
0.0009083743831
0.0009172360151
0.0009252920442
0.0009326157071
0.0009392735824
0.0009453261964
0.0009508285727
0.000955830733
0.0009603781514
0.0009645121682
0.0009682703652
0.000971686908
0.000974792856
0.000977616445
0.0009801833442
0.0009825168889
0.0009846382931
0.0009865668425
0.0009883200691
0.0009899139115
0.0009913628592
0.0009926800843
0.0009938775617
0.0009949661775
0.0009959558283
0.0009968555107
0.0009976734039
0.0009984169432
0.000999092888
0.0009997073832
4.572056072e-05
0.0001330052675
0.000212355001
0.0002844911224
0.0003500694145
0.0004096860436
0.0004638829793
0.0005131529208
0.0005579437767
0.0005986627366
0.0006356799729
0.0006693320059
0.0006999247631
0.0007277363606
0.0007530196311
0.0007760044224
0.0007968996872
0.0008158953826
0.0008331641965
0.0008488631183
0.0008631348653
0.0008761091807
0.000887904013
0.0008986265878
0.0009083743831
0.0009172360151
0.0009252920442
0.0009326157071
0.0009392735825
0.0009453261964
0.0009508285727
0.000955830733
0.0009603781514
0.0009645121682
0.0009682703652
0.0009716869079
0.0009747928559
0.000977616445
0.0009801833441
0.0009825168889
0.0009846382931
0.0009865668425
0.0009883200691
0.0009899139115
0.0009913628592
0.0009926800843
0.0009938775617
0.0009949661775
0.0009959558283
0.0009968555107
0.0009976734039
0.0009984169432
0.000999092888
0.0009997073832
4.572056072e-05
0.0001330052675
0.000212355001
0.0002844911224
0.0003500694144
0.0004096860436
0.0004638829793