/*--------------------------------*- C++ -*----------------------------------*\
  =========                 |
  \\      /  F ield         | OpenFOAM: The Open Source CFD Toolbox
   \\    /   O peration     | Website:  https://openfoam.org
    \\  /    A nd           | Version:  7
     \\/     M anipulation  |
\*---------------------------------------------------------------------------*/
FoamFile
{
    version     2.0;
    format      ascii;
    class       volScalarField;
    location    "constant";
    object      Cz;
}
// * * * * * * * * * * * * * * * * * * * * * * * * * * * * * * * * * * * * * //

dimensions      [0 1 0 0 0 0 0];

internalField   nonuniform List<scalar> 
8748
(
4.662161789e-05
4.662161789e-05
4.662161789e-05
4.662161789e-05
4.662161788e-05
4.662161788e-05
4.662161789e-05
4.662161789e-05
4.662161789e-05
4.662161789e-05
4.662161789e-05
4.662161788e-05
4.662161789e-05
4.662161789e-05
4.662161789e-05
4.662161788e-05
4.662161789e-05
4.662161789e-05
4.662161788e-05
4.662161789e-05
4.662161789e-05
4.662161788e-05
4.662161789e-05
4.662161789e-05
4.662161789e-05
4.662161789e-05
4.662161789e-05
4.662161789e-05
4.662161788e-05
4.662161788e-05
4.662161789e-05
4.662161789e-05
4.662161789e-05
4.662161789e-05
4.662161788e-05
4.662161789e-05
4.662161789e-05
4.662161789e-05
4.662161788e-05
4.662161789e-05
4.662161789e-05
4.662161789e-05
4.662161789e-05
4.662161788e-05
4.662161789e-05
4.662161788e-05
4.662161789e-05
4.662161789e-05
4.662161789e-05
4.662161788e-05
4.662161788e-05
4.662161788e-05
4.662161788e-05
4.662161789e-05
0.0001384247911
0.0001384247911
0.0001384247911
0.0001384247911
0.0001384247911
0.0001384247911
0.0001384247911
0.0001384247911
0.0001384247911
0.0001384247911
0.0001384247911
0.0001384247911
0.0001384247911
0.0001384247911
0.0001384247911
0.0001384247911
0.0001384247911
0.0001384247911
0.0001384247911
0.0001384247911
0.0001384247911
0.0001384247911
0.0001384247911
0.0001384247911
0.0001384247911
0.0001384247911
0.0001384247911
0.0001384247911
0.0001384247911
0.0001384247911
0.0001384247911
0.0001384247911
0.0001384247911
0.0001384247911
0.0001384247911
0.0001384247911
0.0001384247911
0.0001384247911
0.0001384247911
0.0001384247911
0.0001384247911
0.0001384247911
0.0001384247911
0.0001384247911
0.0001384247911
0.0001384247911
0.0001384247911
0.0001384247911
0.0001384247911
0.0001384247911
0.0001384247911
0.0001384247911
0.0001384247911
0.0001384247911
0.0002273923204
0.0002273923203
0.0002273923203
0.0002273923203
0.0002273923204
0.0002273923204
0.0002273923203
0.0002273923203
0.0002273923204
0.0002273923204
0.0002273923203
0.0002273923203
0.0002273923204
0.0002273923203
0.0002273923203
0.0002273923203
0.0002273923203
0.0002273923204
0.0002273923203
0.0002273923203
0.0002273923203
0.0002273923203
0.0002273923203
0.0002273923203
0.0002273923203
0.0002273923204
0.0002273923203
0.0002273923204
0.0002273923204
0.0002273923203
0.0002273923204
0.0002273923204
0.0002273923203
0.0002273923203
0.0002273923204
0.0002273923203
0.0002273923203
0.0002273923203
0.0002273923204
0.0002273923203
0.0002273923203
0.0002273923204
0.0002273923203
0.0002273923203
0.0002273923203
0.0002273923203
0.0002273923203
0.0002273923203
0.0002273923203
0.0002273923204
0.0002273923203
0.0002273923203
0.0002273923203
0.0002273923203
0.0003136117937
0.0003136117937
0.0003136117938
0.0003136117937
0.0003136117937
0.0003136117937
0.0003136117937
0.0003136117937
0.0003136117937
0.0003136117938
0.0003136117937
0.0003136117937
0.0003136117938
0.0003136117938
0.0003136117937
0.0003136117937
0.0003136117938
0.0003136117937
0.0003136117938
0.0003136117938
0.0003136117937
0.0003136117938
0.0003136117937
0.0003136117938
0.0003136117937
0.0003136117937
0.0003136117938
0.0003136117937
0.0003136117938
0.0003136117937
0.0003136117937
0.0003136117938
0.0003136117937
0.0003136117938
0.0003136117937
0.0003136117937
0.0003136117938
0.0003136117938
0.0003136117937
0.0003136117937
0.0003136117938
0.0003136117937
0.0003136117937
0.0003136117938
0.0003136117937
0.0003136117938
0.0003136117937
0.0003136117937
0.0003136117938
0.0003136117937
0.0003136117937
0.0003136117937
0.0003136117937
0.0003136117937
0.0003971680942
0.0003971680942
0.0003971680942
0.0003971680942
0.0003971680942
0.0003971680942
0.0003971680942
0.0003971680942
0.0003971680942
0.0003971680942
0.0003971680942
0.0003971680942
0.0003971680942
0.0003971680942
0.0003971680942
0.0003971680942
0.0003971680942
0.0003971680942
0.0003971680942
0.0003971680942
0.0003971680942
0.0003971680942
0.0003971680942
0.0003971680942
0.0003971680942
0.0003971680942
0.0003971680942
0.0003971680942
0.0003971680942
0.0003971680942
0.0003971680942
0.0003971680942
0.0003971680942
0.0003971680942
0.0003971680942
0.0003971680942
0.0003971680942
0.0003971680942
0.0003971680942
0.0003971680942
0.0003971680942
0.0003971680942
0.0003971680942
0.0003971680942
0.0003971680942
0.0003971680942
0.0003971680942
0.0003971680942
0.0003971680942
0.0003971680942
0.0003971680942
0.0003971680942
0.0003971680942
0.0003971680942
0.0004781434825
0.0004781434826
0.0004781434826
0.0004781434825
0.0004781434826
0.0004781434826
0.0004781434826
0.0004781434826
0.0004781434826
0.0004781434826
0.0004781434826
0.0004781434825
0.0004781434826
0.0004781434825
0.0004781434825
0.0004781434826
0.0004781434825
0.0004781434826
0.0004781434826
0.0004781434826
0.0004781434826
0.0004781434825
0.0004781434825
0.0004781434825
0.0004781434826
0.0004781434826
0.0004781434826
0.0004781434826
0.0004781434825
0.0004781434825
0.0004781434826
0.0004781434825
0.0004781434826
0.0004781434825
0.0004781434826
0.0004781434825
0.0004781434826
0.0004781434825
0.0004781434825
0.0004781434826
0.0004781434826
0.0004781434826
0.0004781434825
0.0004781434826
0.0004781434826
0.0004781434826
0.0004781434826
0.0004781434826
0.0004781434825
0.0004781434826
0.0004781434825
0.0004781434826
0.0004781434825
0.0004781434825
0.0005566176787
0.0005566176787
0.0005566176787
0.0005566176788
0.0005566176787
0.0005566176788
0.0005566176787
0.0005566176787
0.0005566176787
0.0005566176788
0.0005566176787
0.0005566176788
0.0005566176787
0.0005566176787
0.0005566176787
0.0005566176787
0.0005566176787
0.0005566176787
0.0005566176787
0.0005566176787
0.0005566176788
0.0005566176787
0.0005566176787
0.0005566176787
0.0005566176787
0.0005566176787
0.0005566176788
0.0005566176787
0.0005566176787
0.0005566176787
0.0005566176787
0.0005566176787
0.0005566176787
0.0005566176788
0.0005566176787
0.0005566176787
0.0005566176787
0.0005566176787
0.0005566176787
0.0005566176787
0.0005566176787
0.0005566176787
0.0005566176787
0.0005566176787
0.0005566176788
0.0005566176788
0.0005566176788
0.0005566176787
0.0005566176787
0.0005566176787
0.0005566176787
0.0005566176787
0.0005566176787
0.0005566176788
0.0006326679403
0.0006326679403
0.0006326679404
0.0006326679404
0.0006326679403
0.0006326679403
0.0006326679404
0.0006326679404
0.0006326679404
0.0006326679403
0.0006326679403
0.0006326679403
0.0006326679403
0.0006326679403
0.0006326679403
0.0006326679403
0.0006326679403
0.0006326679403
0.0006326679403
0.0006326679403
0.0006326679403
0.0006326679404
0.0006326679403
0.0006326679403
0.0006326679403
0.0006326679403
0.0006326679403
0.0006326679403
0.0006326679403
0.0006326679403
0.0006326679403
0.0006326679404
0.0006326679403
0.0006326679403
0.0006326679403
0.0006326679403
0.0006326679403
0.0006326679403
0.0006326679403
0.0006326679403
0.0006326679403
0.0006326679403
0.0006326679404
0.0006326679403
0.0006326679403
0.0006326679403
0.0006326679403
0.0006326679403
0.0006326679403
0.0006326679404
0.0006326679404
0.0006326679403
0.0006326679403
0.0006326679403
0.0007063691386
0.0007063691386
0.0007063691386
0.0007063691386
0.0007063691386
0.0007063691386
0.0007063691386
0.0007063691386
0.0007063691386
0.0007063691386
0.0007063691386
0.0007063691386
0.0007063691386
0.0007063691386
0.0007063691386
0.0007063691386
0.0007063691386
0.0007063691386
0.0007063691386
0.0007063691386
0.0007063691386
0.0007063691386
0.0007063691386
0.0007063691386
0.0007063691386
0.0007063691386
0.0007063691386
0.0007063691386
0.0007063691386
0.0007063691386
0.0007063691386
0.0007063691386
0.0007063691386
0.0007063691386
0.0007063691386
0.0007063691386
0.0007063691386
0.0007063691386
0.0007063691386
0.0007063691386
0.0007063691386
0.0007063691386
0.0007063691386
0.0007063691386
0.0007063691386
0.0007063691386
0.0007063691386
0.0007063691386
0.0007063691386
0.0007063691386
0.0007063691386
0.0007063691386
0.0007063691386
0.0007063691386
0.0007777938321
0.0007777938321
0.0007777938321
0.0007777938322
0.0007777938321
0.0007777938321
0.0007777938321
0.0007777938321
0.0007777938321
0.0007777938321
0.0007777938322
0.0007777938321
0.0007777938322
0.0007777938321
0.0007777938321
0.0007777938321
0.0007777938321
0.0007777938322
0.0007777938322
0.0007777938322
0.0007777938321
0.0007777938321
0.0007777938321
0.0007777938321
0.0007777938321
0.0007777938322
0.0007777938322
0.0007777938321
0.0007777938321
0.0007777938321
0.0007777938322
0.0007777938321
0.0007777938322
0.0007777938321
0.0007777938322
0.0007777938322
0.0007777938321
0.0007777938321
0.0007777938322
0.0007777938322
0.0007777938322
0.0007777938322
0.0007777938321
0.0007777938321
0.0007777938321
0.0007777938322
0.0007777938321
0.0007777938321
0.0007777938321
0.0007777938321
0.0007777938321
0.0007777938321
0.0007777938321
0.0007777938321
0.0008470123383
0.0008470123383
0.0008470123383
0.0008470123383
0.0008470123383
0.0008470123383
0.0008470123383
0.0008470123383
0.0008470123383
0.0008470123383
0.0008470123383
0.0008470123383
0.0008470123383
0.0008470123383
0.0008470123383
0.0008470123383
0.0008470123383
0.0008470123383
0.0008470123383
0.0008470123383
0.0008470123383
0.0008470123383
0.0008470123383
0.0008470123383
0.0008470123383
0.0008470123383
0.0008470123383
0.0008470123383
0.0008470123383
0.0008470123383
0.0008470123383
0.0008470123383
0.0008470123383
0.0008470123383
0.0008470123383
0.0008470123383
0.0008470123383
0.0008470123383
0.0008470123383
0.0008470123383
0.0008470123383
0.0008470123383
0.0008470123383
0.0008470123383
0.0008470123383
0.0008470123383
0.0008470123383
0.0008470123383
0.0008470123383
0.0008470123383
0.0008470123383
0.0008470123383
0.0008470123383
0.0008470123383
0.0009140928024
0.0009140928024
0.0009140928024
0.0009140928024
0.0009140928024
0.0009140928024
0.0009140928024
0.0009140928024
0.0009140928024
0.0009140928024
0.0009140928024
0.0009140928024
0.0009140928024
0.0009140928024
0.0009140928024
0.0009140928024
0.0009140928024
0.0009140928024
0.0009140928024
0.0009140928024
0.0009140928024
0.0009140928024
0.0009140928024
0.0009140928024
0.0009140928024
0.0009140928024
0.0009140928024
0.0009140928024
0.0009140928024
0.0009140928024
0.0009140928024
0.0009140928024
0.0009140928024
0.0009140928024
0.0009140928024
0.0009140928024
0.0009140928024
0.0009140928024
0.0009140928024
0.0009140928024
0.0009140928024
0.0009140928024
0.0009140928024
0.0009140928024
0.0009140928024
0.0009140928024
0.0009140928024
0.0009140928024
0.0009140928024
0.0009140928024
0.0009140928024
0.0009140928024
0.0009140928024
0.0009140928024
0.0009791012647
0.0009791012647
0.0009791012647
0.0009791012647
0.0009791012647
0.0009791012647
0.0009791012648
0.0009791012647
0.0009791012647
0.0009791012647
0.0009791012647
0.0009791012647
0.0009791012648
0.0009791012647
0.0009791012647
0.0009791012648
0.0009791012647
0.0009791012647
0.0009791012647
0.0009791012647
0.0009791012647
0.0009791012648
0.0009791012647
0.0009791012647
0.0009791012647
0.0009791012647
0.0009791012647
0.0009791012647
0.0009791012647
0.0009791012647
0.0009791012647
0.0009791012647
0.0009791012647
0.0009791012647
0.0009791012647
0.0009791012647
0.0009791012647
0.0009791012647
0.0009791012647
0.0009791012647
0.0009791012647
0.0009791012647
0.0009791012647
0.0009791012648
0.0009791012647
0.0009791012647
0.0009791012647
0.0009791012647
0.0009791012647
0.0009791012648
0.0009791012647
0.0009791012647
0.0009791012647
0.0009791012647
0.001042101727
0.001042101727
0.001042101726
0.001042101726
0.001042101727
0.001042101727
0.001042101726
0.001042101727
0.001042101727
0.001042101727
0.001042101727
0.001042101727
0.001042101726
0.001042101726
0.001042101726
0.001042101727
0.001042101727
0.001042101726
0.001042101726
0.001042101727
0.001042101727
0.001042101727
0.001042101726
0.001042101727
0.001042101727
0.001042101727
0.001042101727
0.001042101727
0.001042101727
0.001042101727
0.001042101726
0.001042101727
0.001042101726
0.001042101727
0.001042101727
0.001042101727
0.001042101727
0.001042101727
0.001042101727
0.001042101727
0.001042101726
0.001042101727
0.001042101727
0.001042101727
0.001042101726
0.001042101727
0.001042101727
0.001042101727
0.001042101727
0.001042101726
0.001042101726
0.001042101727
0.001042101726
0.001042101727
0.001103156211
0.001103156211
0.001103156211
0.001103156211
0.001103156211
0.001103156211
0.001103156211
0.001103156211
0.001103156211
0.001103156211
0.001103156211
0.001103156211
0.001103156211
0.001103156211
0.001103156211
0.001103156211
0.001103156211
0.001103156211
0.001103156211
0.001103156211
0.001103156211
0.001103156211
0.001103156211
0.001103156211
0.001103156211
0.001103156211
0.001103156211
0.001103156211
0.001103156211
0.001103156211
0.001103156211
0.001103156211
0.001103156211
0.001103156211
0.001103156211
0.001103156211
0.001103156211
0.001103156211
0.001103156211
0.001103156211
0.001103156211
0.001103156211
0.001103156211
0.001103156211
0.001103156211
0.001103156211
0.001103156211
0.001103156211
0.001103156211
0.001103156211
0.001103156211
0.001103156211
0.001103156211
0.001103156211
0.001162324826
0.001162324826
0.001162324826
0.001162324826
0.001162324826
0.001162324826
0.001162324826
0.001162324826
0.001162324826
0.001162324826
0.001162324826
0.001162324826
0.001162324826
0.001162324826
0.001162324826
0.001162324826
0.001162324826
0.001162324826
0.001162324826
0.001162324826
0.001162324826
0.001162324826
0.001162324826
0.001162324826
0.001162324826
0.001162324826
0.001162324826
0.001162324826
0.001162324826
0.001162324826
0.001162324826
0.001162324826
0.001162324826
0.001162324826
0.001162324826
0.001162324826
0.001162324826
0.001162324826
0.001162324826
0.001162324826
0.001162324826
0.001162324826
0.001162324826
0.001162324826
0.001162324826
0.001162324826
0.001162324826
0.001162324826
0.001162324826
0.001162324826
0.001162324826
0.001162324826
0.001162324826
0.001162324826
0.001219665823
0.001219665823
0.001219665823
0.001219665823
0.001219665823
0.001219665823
0.001219665823
0.001219665823
0.001219665823
0.001219665823
0.001219665823
0.001219665824
0.001219665823
0.001219665823
0.001219665823
0.001219665823
0.001219665824
0.001219665823
0.001219665823
0.001219665823
0.001219665823
0.001219665823
0.001219665823
0.001219665824
0.001219665823
0.001219665823
0.001219665823
0.001219665823
0.001219665823
0.001219665823
0.001219665823
0.001219665823
0.001219665823
0.001219665823
0.001219665823
0.001219665823
0.001219665823
0.001219665823
0.001219665823
0.001219665823
0.001219665823
0.001219665823
0.001219665823
0.001219665823
0.001219665823
0.001219665823
0.001219665823
0.001219665823
0.001219665823
0.001219665823
0.001219665823
0.001219665823
0.001219665823
0.001219665824
0.001275235655
0.001275235655
0.001275235655
0.001275235655
0.001275235655
0.001275235655
0.001275235655
0.001275235655
0.001275235655
0.001275235655
0.001275235655
0.001275235655
0.001275235655
0.001275235655
0.001275235655
0.001275235655
0.001275235655
0.001275235655
0.001275235655
0.001275235655
0.001275235655
0.001275235655
0.001275235655
0.001275235655
0.001275235655
0.001275235655
0.001275235655
0.001275235655
0.001275235655
0.001275235655
0.001275235655
0.001275235655
0.001275235655
0.001275235655
0.001275235655
0.001275235655
0.001275235655
0.001275235655
0.001275235655
0.001275235655
0.001275235655
0.001275235655
0.001275235655
0.001275235655
0.001275235655
0.001275235655
0.001275235655
0.001275235655
0.001275235655
0.001275235655
0.001275235655
0.001275235655
0.001275235655
0.001275235655
0.001329089028
0.001329089028
0.001329089029
0.001329089028
0.001329089029
0.001329089028
0.001329089028
0.001329089028
0.001329089029
0.001329089029
0.001329089028
0.001329089028
0.001329089029
0.001329089028
0.001329089028
0.001329089028
0.001329089028
0.001329089028
0.001329089028
0.001329089028
0.001329089029
0.001329089028
0.001329089028
0.001329089028
0.001329089029
0.001329089028
0.001329089028
0.001329089028
0.001329089028
0.001329089028
0.001329089028
0.001329089028
0.001329089028
0.001329089029
0.001329089028
0.001329089028
0.001329089028
0.001329089028
0.001329089028
0.001329089029
0.001329089029
0.001329089028
0.001329089028
0.001329089028
0.001329089028
0.001329089028
0.001329089028
0.001329089029
0.001329089029
0.001329089029
0.001329089028
0.001329089029
0.001329089028
0.001329089028
0.001381278963
0.001381278963
0.001381278963
0.001381278963
0.001381278963
0.001381278963
0.001381278963
0.001381278963
0.001381278963
0.001381278963
0.001381278963
0.001381278963
0.001381278963
0.001381278963
0.001381278963
0.001381278963
0.001381278963
0.001381278963
0.001381278963
0.001381278963
0.001381278963
0.001381278963
0.001381278963
0.001381278963
0.001381278963
0.001381278963
0.001381278963
0.001381278963
0.001381278963
0.001381278963
0.001381278963
0.001381278963
0.001381278963
0.001381278963
0.001381278963
0.001381278963
0.001381278963
0.001381278963
0.001381278963
0.001381278963
0.001381278963
0.001381278963
0.001381278963
0.001381278963
0.001381278963
0.001381278963
0.001381278963
0.001381278963
0.001381278963
0.001381278963
0.001381278963
0.001381278963
0.001381278963
0.001381278963
0.001431856839
0.001431856839
0.001431856839
0.001431856839
0.001431856839
0.001431856839
0.001431856839
0.001431856839
0.001431856839
0.001431856839
0.001431856839
0.001431856839
0.001431856839
0.001431856839
0.001431856839
0.001431856839
0.001431856839
0.001431856839
0.001431856839
0.001431856839
0.001431856839
0.001431856839
0.001431856839
0.001431856839
0.001431856839
0.001431856839
0.001431856839
0.001431856839
0.001431856839
0.001431856839
0.001431856839
0.001431856839
0.001431856839
0.001431856839
0.001431856839
0.001431856839
0.001431856839
0.001431856839
0.001431856839
0.001431856839
0.001431856839
0.001431856839
0.001431856839
0.001431856839
0.001431856839
0.001431856839
0.001431856839
0.001431856839
0.001431856839
0.001431856839
0.001431856839
0.001431856839
0.001431856839
0.001431856839
0.00148087245
0.00148087245
0.00148087245
0.00148087245
0.00148087245
0.00148087245
0.00148087245
0.00148087245
0.00148087245
0.00148087245
0.00148087245
0.00148087245
0.00148087245
0.00148087245
0.00148087245
0.00148087245
0.00148087245
0.00148087245
0.00148087245
0.00148087245
0.00148087245
0.00148087245
0.00148087245
0.00148087245
0.00148087245
0.00148087245
0.00148087245
0.00148087245
0.00148087245
0.00148087245
0.00148087245
0.00148087245
0.00148087245
0.00148087245
0.00148087245
0.00148087245
0.00148087245
0.00148087245
0.00148087245
0.00148087245
0.00148087245
0.00148087245
0.00148087245
0.00148087245
0.00148087245
0.00148087245
0.00148087245
0.00148087245
0.00148087245
0.00148087245
0.00148087245
0.00148087245
0.00148087245
0.00148087245
0.001528374053
0.001528374052
0.001528374053
0.001528374052
0.001528374052
0.001528374052
0.001528374052
0.001528374052
0.001528374052
0.001528374053
0.001528374052
0.001528374052
0.001528374052
0.001528374052
0.001528374052
0.001528374052
0.001528374052
0.001528374053
0.001528374053
0.001528374052
0.001528374053
0.001528374052
0.001528374053
0.001528374052
0.001528374052
0.001528374053
0.001528374052
0.001528374052
0.001528374052
0.001528374053
0.001528374052
0.001528374052
0.001528374052
0.001528374052
0.001528374052
0.001528374052
0.001528374052
0.001528374052
0.001528374052
0.001528374052
0.001528374052
0.001528374052
0.001528374053
0.001528374052
0.001528374053
0.001528374052
0.001528374052
0.001528374053
0.001528374052
0.001528374052
0.001528374052
0.001528374052
0.001528374052
0.001528374052
0.001574408412
0.001574408411
0.001574408411
0.001574408411
0.001574408412
0.001574408412
0.001574408412
0.001574408412
0.001574408412
0.001574408411
0.001574408412
0.001574408411
0.001574408412
0.001574408412
0.001574408411
0.001574408412
0.001574408411
0.001574408411
0.001574408412
0.001574408411
0.001574408412
0.001574408412
0.001574408412
0.001574408411
0.001574408411
0.001574408412
0.001574408412
0.001574408412
0.001574408412
0.001574408411
0.001574408411
0.001574408411
0.001574408411
0.001574408411
0.001574408411
0.001574408412
0.001574408412
0.001574408412
0.001574408412
0.001574408411
0.001574408412
0.001574408411
0.001574408411
0.001574408412
0.001574408411
0.001574408411
0.001574408411
0.001574408411
0.001574408412
0.001574408411
0.001574408411
0.001574408411
0.001574408411
0.001574408412
0.001619020847
0.001619020847
0.001619020847
0.001619020847
0.001619020847
0.001619020847
0.001619020847
0.001619020847
0.001619020847
0.001619020847
0.001619020847
0.001619020847
0.001619020847
0.001619020847
0.001619020847
0.001619020847
0.001619020847
0.001619020847
0.001619020847
0.001619020847
0.001619020847
0.001619020847
0.001619020847
0.001619020847
0.001619020847
0.001619020847
0.001619020847
0.001619020847
0.001619020847
0.001619020847
0.001619020847
0.001619020847
0.001619020847
0.001619020847
0.001619020847
0.001619020847
0.001619020847
0.001619020847
0.001619020847
0.001619020847
0.001619020847
0.001619020847
0.001619020847
0.001619020847
0.001619020847
0.001619020847
0.001619020847
0.001619020847
0.001619020847
0.001619020847
0.001619020847
0.001619020847
0.001619020847
0.001619020847
0.00166225528
0.00166225528
0.00166225528
0.00166225528
0.00166225528
0.00166225528
0.00166225528
0.00166225528
0.00166225528
0.00166225528
0.00166225528
0.00166225528
0.00166225528
0.00166225528
0.00166225528
0.00166225528
0.00166225528
0.00166225528
0.00166225528
0.00166225528
0.00166225528
0.00166225528
0.00166225528
0.00166225528
0.00166225528
0.00166225528
0.00166225528
0.00166225528
0.00166225528
0.00166225528
0.00166225528
0.00166225528
0.00166225528
0.00166225528
0.00166225528
0.00166225528
0.00166225528
0.00166225528
0.00166225528
0.00166225528
0.00166225528
0.00166225528
0.00166225528
0.00166225528
0.00166225528
0.00166225528
0.00166225528
0.00166225528
0.00166225528
0.00166225528
0.00166225528
0.00166225528
0.00166225528
0.00166225528
0.001704154276
0.001704154275
0.001704154276
0.001704154276
0.001704154275
0.001704154275
0.001704154275
0.001704154275
0.001704154276
0.001704154276
0.001704154275
0.001704154275
0.001704154275
0.001704154275
0.001704154275
0.001704154275
0.001704154275
0.001704154275
0.001704154275
0.001704154275
0.001704154276
0.001704154275
0.001704154276
0.001704154276
0.001704154276
0.001704154275
0.001704154275
0.001704154275
0.001704154276
0.001704154276
0.001704154276
0.001704154275
0.001704154276
0.001704154275
0.001704154275
0.001704154275
0.001704154275
0.001704154275
0.001704154275
0.001704154275
0.001704154276
0.001704154275
0.001704154275
0.001704154276
0.001704154275
0.001704154276
0.001704154276
0.001704154275
0.001704154275
0.001704154275
0.001704154275
0.001704154275
0.001704154276
0.001704154275
0.001744759082
0.001744759082
0.001744759082
0.001744759082
0.001744759082
0.001744759082
0.001744759082
0.001744759082
0.001744759082
0.001744759082
0.001744759082
0.001744759082
0.001744759082
0.001744759082
0.001744759082
0.001744759082
0.001744759082
0.001744759082
0.001744759082
0.001744759082
0.001744759082
0.001744759082
0.001744759082
0.001744759082
0.001744759082
0.001744759082
0.001744759082
0.001744759082
0.001744759082
0.001744759082
0.001744759082
0.001744759082
0.001744759082
0.001744759082
0.001744759082
0.001744759082
0.001744759082
0.001744759082
0.001744759082
0.001744759082
0.001744759082
0.001744759082
0.001744759082
0.001744759082
0.001744759082
0.001744759082
0.001744759082
0.001744759082
0.001744759082
0.001744759082
0.001744759082
0.001744759082
0.001744759082
0.001744759082
0.001784109674
0.001784109674
0.001784109674
0.001784109674
0.001784109674
0.001784109674
0.001784109674
0.001784109674
0.001784109674
0.001784109674
0.001784109674
0.001784109675
0.001784109674
0.001784109674
0.001784109674
0.001784109674
0.001784109674
0.001784109675
0.001784109675
0.001784109674
0.001784109674
0.001784109675
0.001784109674
0.001784109675
0.001784109674
0.001784109674
0.001784109674
0.001784109674
0.001784109675
0.001784109674
0.001784109674
0.001784109675
0.001784109674
0.001784109674
0.001784109674
0.001784109674
0.001784109674
0.001784109675
0.001784109674
0.001784109674
0.001784109674
0.001784109674
0.001784109674
0.001784109674
0.001784109675
0.001784109674
0.001784109674
0.001784109674
0.001784109674
0.001784109674
0.001784109674
0.001784109674
0.001784109675
0.001784109675
0.001822244794
0.001822244794
0.001822244794
0.001822244795
0.001822244795
0.001822244794
0.001822244795
0.001822244794
0.001822244794
0.001822244794
0.001822244795
0.001822244795
0.001822244795
0.001822244794
0.001822244794
0.001822244794
0.001822244794
0.001822244795
0.001822244795
0.001822244794
0.001822244795
0.001822244795
0.001822244794
0.001822244795
0.001822244794
0.001822244794
0.001822244794
0.001822244794
0.001822244795
0.001822244794
0.001822244794
0.001822244794
0.001822244794
0.001822244795
0.001822244795
0.001822244795
0.001822244794
0.001822244795
0.001822244794
0.001822244794
0.001822244794
0.001822244795
0.001822244795
0.001822244795
0.001822244794
0.001822244795
0.001822244794
0.001822244794
0.001822244794
0.001822244794
0.001822244794
0.001822244794
0.001822244795
0.001822244794
0.001859201986
0.001859201985
0.001859201985
0.001859201985
0.001859201985
0.001859201985
0.001859201985
0.001859201985
0.001859201985
0.001859201986
0.001859201986
0.001859201985
0.001859201986
0.001859201985
0.001859201985
0.001859201985
0.001859201985
0.001859201985
0.001859201985
0.001859201985
0.001859201985
0.001859201985
0.001859201985
0.001859201985
0.001859201985
0.001859201985
0.001859201985
0.001859201985
0.001859201985
0.001859201985
0.001859201985
0.001859201985
0.001859201985
0.001859201985
0.001859201985
0.001859201985
0.001859201986
0.001859201985
0.001859201986
0.001859201985
0.001859201985
0.001859201985
0.001859201985
0.001859201985
0.001859201985
0.001859201985
0.001859201985
0.001859201985
0.001859201985
0.001859201986
0.001859201985
0.001859201985
0.001859201985
0.001859201986
0.001895017631
0.001895017631
0.001895017631
0.001895017632
0.001895017631
0.001895017631
0.001895017632
0.001895017631
0.001895017631
0.001895017632
0.001895017632
0.001895017631
0.001895017631
0.001895017631
0.001895017631
0.001895017632
0.001895017632
0.001895017631
0.001895017632
0.001895017631
0.001895017631
0.001895017631
0.001895017631
0.001895017632
0.001895017631
0.001895017631
0.001895017632
0.001895017631
0.001895017632
0.001895017631
0.001895017631
0.001895017631
0.001895017632
0.001895017632
0.001895017631
0.001895017632
0.001895017632
0.001895017632
0.001895017631
0.001895017631
0.001895017631
0.001895017632
0.001895017631
0.001895017631
0.001895017632
0.001895017631
0.001895017631
0.001895017631
0.001895017632
0.001895017632
0.001895017631
0.001895017631
0.001895017632
0.001895017631
0.001929726993
0.001929726993
0.001929726993
0.001929726993
0.001929726993
0.001929726993
0.001929726993
0.001929726993
0.001929726993
0.001929726993
0.001929726993
0.001929726993
0.001929726993
0.001929726993
0.001929726993
0.001929726993
0.001929726993
0.001929726993
0.001929726993
0.001929726993
0.001929726993
0.001929726993
0.001929726993
0.001929726993
0.001929726993
0.001929726993
0.001929726993
0.001929726993
0.001929726993
0.001929726993
0.001929726993
0.001929726993
0.001929726993
0.001929726993
0.001929726993
0.001929726993
0.001929726993
0.001929726993
0.001929726993
0.001929726993
0.001929726993
0.001929726993
0.001929726993
0.001929726993
0.001929726993
0.001929726993
0.001929726993
0.001929726993
0.001929726993
0.001929726993
0.001929726993
0.001929726993
0.001929726993
0.001929726993
0.001963364242
0.001963364242
0.001963364242
0.001963364241
0.001963364242
0.001963364241
0.001963364241
0.001963364241
0.001963364242
0.001963364242
0.001963364241
0.001963364242
0.001963364242
0.001963364241
0.001963364242
0.001963364242
0.001963364242
0.001963364241
0.001963364242
0.001963364242
0.001963364242
0.001963364242
0.001963364241
0.001963364242
0.001963364241
0.001963364241
0.001963364241
0.001963364242
0.001963364242
0.001963364241
0.001963364242
0.001963364242
0.001963364241
0.001963364242
0.001963364241
0.001963364242
0.001963364241
0.001963364241
0.001963364242
0.001963364241
0.001963364242
0.001963364242
0.001963364241
0.001963364242
0.001963364242
0.001963364242
0.001963364242
0.001963364242
0.001963364242
0.001963364241
0.001963364242
0.001963364241
0.001963364241
0.001963364242
0.001995962493
0.001995962493
0.001995962493
0.001995962493
0.001995962493
0.001995962493
0.001995962493
0.001995962493
0.001995962493
0.001995962493
0.001995962493
0.001995962493
0.001995962493
0.001995962493
0.001995962493
0.001995962493
0.001995962493
0.001995962493
0.001995962493
0.001995962493
0.001995962493
0.001995962493
0.001995962493
0.001995962493
0.001995962493
0.001995962493
0.001995962493
0.001995962493
0.001995962493
0.001995962493
0.001995962493
0.001995962493
0.001995962493
0.001995962493
0.001995962493
0.001995962493
0.001995962493
0.001995962493
0.001995962493
0.001995962493
0.001995962493
0.001995962493
0.001995962493
0.001995962493
0.001995962493
0.001995962493
0.001995962493
0.001995962493
0.001995962493
0.001995962493
0.001995962493
0.001995962493
0.001995962493
0.001995962493
0.002027553839
0.002027553839
0.002027553839
0.002027553839
0.002027553839
0.002027553839
0.002027553839
0.002027553839
0.002027553839
0.002027553839
0.002027553839
0.002027553839
0.002027553839
0.002027553839
0.002027553839
0.002027553839
0.002027553839
0.002027553839
0.002027553839
0.002027553839
0.002027553839
0.002027553839
0.002027553839
0.002027553839