/*--------------------------------*- C++ -*----------------------------------*\
  =========                 |
  \\      /  F ield         | OpenFOAM: The Open Source CFD Toolbox
   \\    /   O peration     | Website:  https://openfoam.org
    \\  /    A nd           | Version:  7
     \\/     M anipulation  |
\*---------------------------------------------------------------------------*/
FoamFile
{
    version     2.0;
    format      ascii;
    class       volScalarField;
    location    "constant";
    object      V;
}
// * * * * * * * * * * * * * * * * * * * * * * * * * * * * * * * * * * * * * //

dimensions      [0 3 0 0 0 0 0];

internalField   nonuniform List<scalar> 
8748
(
8.526266045e-12
7.751150946e-12
7.046500869e-12
6.405909872e-12
5.823554431e-12
5.294140393e-12
4.812854905e-12
4.375322639e-12
3.977566035e-12
3.615969121e-12
3.287244662e-12
2.988404232e-12
2.716731122e-12
2.469755563e-12
2.245232332e-12
2.041120297e-12
1.855563917e-12
1.686876283e-12
1.533523889e-12
1.394112635e-12
1.267375115e-12
1.152159194e-12
1.047417454e-12
9.521976858e-13
8.656342649e-13
7.869402281e-13
7.154002133e-13
6.503638303e-13
5.912398517e-13
5.374907675e-13
4.886279738e-13
4.442072506e-13
4.038247614e-13
3.671134356e-13
3.337394716e-13
3.033995307e-13
2.758177526e-13
2.507434064e-13
2.279485589e-13
2.072259584e-13
1.883872349e-13
1.712611286e-13
1.556919232e-13
1.415381222e-13
1.286710125e-13
1.169736579e-13
1.063396772e-13
9.667244225e-14
8.788403417e-14
7.989458076e-14
7.263143621e-14
6.602857498e-14
6.002597641e-14
5.456907455e-14
8.262904181e-12
7.51173107e-12
6.828846436e-12
6.208042206e-12
5.643674735e-12
5.130613396e-12
4.664193998e-12
4.24017636e-12
3.854705782e-12
3.504277982e-12
3.185707263e-12
2.896097505e-12
2.632815916e-12
2.393469012e-12
2.175880922e-12
1.978073561e-12
1.798248702e-12
1.634771542e-12
1.486155943e-12
1.351050866e-12
1.228228052e-12
1.116570955e-12
1.01506451e-12
9.227859181e-13
8.388962941e-13
7.626329823e-13
6.933027169e-13
6.302751972e-13
5.729774578e-13
5.208885914e-13
4.735350864e-13
4.304864438e-13
3.91351301e-13
3.557739256e-13
3.234308267e-13
2.94028035e-13
2.672982111e-13
2.429983688e-13
2.209076154e-13
2.008251008e-13
1.825682735e-13
1.659711635e-13
1.508828644e-13
1.371662502e-13
1.246965837e-13
1.133605405e-13
1.030550253e-13
9.368639485e-14
8.516944576e-14
7.742677298e-14
7.038797461e-14
6.398906455e-14
5.817187604e-14
5.28835286e-14
8.007677103e-12
7.279706454e-12
6.617914967e-12
6.016286325e-12
5.469351207e-12
4.972137462e-12
4.520124967e-12
4.109204514e-12
3.735640467e-12
3.396036787e-12
3.087306176e-12
2.806641972e-12
2.551492704e-12
2.319538819e-12
2.108671656e-12
1.916974228e-12
1.742703854e-12
1.584276226e-12
1.44025111e-12
1.309319199e-12
1.190290173e-12
1.082081975e-12
9.83710891e-13
8.942826282e-13
8.129842122e-13
7.390765446e-13
6.718877734e-13
6.108070667e-13
5.552791572e-13
5.047992274e-13
4.589083917e-13
4.171894486e-13
3.79263124e-13
3.447846733e-13
3.134405977e-13
2.849460083e-13
2.590418233e-13
2.354925619e-13
2.140841543e-13
1.946219545e-13
1.769290496e-13
1.608445961e-13
1.462223489e-13
1.329294177e-13
1.20844918e-13
1.098590259e-13
9.987183059e-14
9.079258122e-14
8.253870622e-14
7.503519145e-14
6.821380962e-14
6.201255101e-14
5.637504558e-14
5.125004621e-14
7.76033357e-12
7.054848697e-12
6.413498824e-12
5.830453468e-12
5.300412246e-12
4.818556588e-12
4.38050599e-12
3.982278172e-12
3.620252883e-12
3.291138983e-12
2.991944536e-12
2.719949572e-12
2.472681432e-12
2.247892208e-12
2.043538373e-12
1.857762152e-12
1.688874694e-12
1.535340626e-12
1.395764201e-12
1.268876555e-12
1.153524133e-12
1.048658302e-12
9.533257338e-13
8.66659758e-13
7.878725119e-13
7.162477265e-13
6.511343022e-13
5.919402748e-13
5.381275279e-13
4.892068374e-13
4.447334916e-13
4.043031757e-13
3.675483308e-13
3.341348608e-13
3.037589505e-13
2.761445105e-13
2.510404618e-13
2.28218597e-13
2.074714587e-13
1.886104132e-13
1.71464012e-13
1.558763799e-13
1.417057891e-13
1.288234539e-13
1.171122239e-13
1.064656673e-13
9.678695951e-14
8.798815273e-14
7.998922589e-14
7.271748194e-14
6.610680099e-14
6.009708873e-14
5.463371625e-14
4.96670194e-14
7.520630061e-12
6.836936416e-12
6.21539675e-12
5.650360674e-12
5.136691524e-12
4.669719568e-12
4.245199609e-12
3.85927237e-12
3.508429427e-12
3.189481296e-12
2.899528457e-12
2.635934955e-12
2.396304507e-12
2.17845864e-12
1.980416947e-12
1.800379038e-12
1.636708226e-12
1.487916565e-12
1.352651418e-12
1.229683116e-12
1.117893734e-12
1.01626703e-12
9.238791229e-13
8.398901117e-13
7.635364697e-13
6.941240521e-13
6.310218708e-13
5.736562462e-13
5.215056836e-13
4.7409607e-13
4.309964303e-13
3.918149381e-13
3.561953878e-13
3.238140031e-13
2.94376353e-13
2.676148761e-13
2.432862487e-13
2.211693126e-13
2.010630181e-13
1.827845582e-13
1.661677802e-13
1.510616236e-13
1.373287383e-13
1.248443165e-13
1.134948264e-13
1.031771239e-13
9.37973749e-14
8.52703483e-14
7.751849471e-14
7.047136257e-14
6.406487432e-14
5.824079184e-14
5.294617365e-14
4.813288963e-14
7.288330577e-12
6.625755067e-12
6.023413705e-12
5.475830633e-12
4.97802785e-12
4.525479865e-12
4.114072606e-12
3.740066004e-12
3.400060003e-12
3.090963638e-12
2.809966949e-12
2.554515403e-12
2.322286732e-12
2.111169754e-12
1.919245232e-12
1.744768389e-12
1.58615309e-12
1.44195735e-12
1.310870314e-12
1.191700294e-12
1.083363896e-12
9.848762683e-13
8.953420665e-13
8.139473332e-13
7.399521254e-13
6.726837395e-13
6.115306773e-13
5.559369794e-13
5.053972591e-13
4.594520479e-13
4.176836828e-13
3.797124404e-13
3.451931175e-13
3.138119387e-13
2.852835676e-13
2.593487073e-13
2.357715499e-13
2.143377683e-13
1.948525231e-13
1.771386538e-13
1.610351398e-13
1.463955867e-13
1.330868869e-13
1.209880877e-13
1.099891641e-13
9.999015785e-14
9.090013336e-14
8.263649212e-14
7.512408012e-14
6.829462191e-14
6.20860192e-14
5.644183274e-14
5.131075631e-14
4.664614645e-14
7.063206431e-12
6.421096752e-12
5.837360692e-12
5.30669153e-12
4.82426503e-12
4.385695482e-12
3.986995894e-12
3.624541721e-12
3.295037928e-12
2.995489024e-12
2.723171846e-12
2.475610763e-12
2.250555241e-12
2.045959308e-12
1.859963009e-12
1.690875458e-12
1.537159517e-12
1.397417738e-12
1.270379758e-12
1.154890697e-12
1.049900626e-12
9.544551141e-13
8.676864716e-13
7.888058833e-13
7.170962617e-13
6.51905682e-13
5.92641534e-13
5.387650309e-13
4.897863966e-13
4.452603549e-13
4.047821437e-13
3.679837684e-13
3.345306887e-13
3.041188212e-13
2.76471643e-13
2.513378664e-13
2.284889674e-13
2.077172389e-13
1.888338598e-13
1.716671418e-13
1.56061038e-13
1.418736758e-13
1.289760591e-13
1.172509712e-13
1.065917857e-13
9.69016318e-14
8.809238272e-14
8.008399131e-14
7.280362495e-14
6.61851171e-14
6.016828757e-14
5.469844044e-14
4.972585424e-14
4.520532625e-14
6.84503598e-12
6.222759979e-12
5.657054534e-12
5.142776842e-12
4.675251676e-12
4.250228797e-12
3.863844363e-12
3.512585783e-12
3.193259803e-12
2.902963455e-12
2.639057692e-12
2.399143351e-12
2.181039412e-12
1.9827631e-12
1.80251191e-12
1.638647187e-12
1.48967927e-12
1.354253878e-12
1.231139885e-12
1.119218084e-12
1.017470979e-12
9.249736167e-13
8.408851102e-13
7.644410092e-13
6.949463761e-13
6.317694226e-13
5.743358435e-13
5.221234941e-13
4.746577267e-13
4.315070188e-13
3.922791107e-13
3.566173747e-13
3.241976039e-13
2.947251074e-13
2.679319035e-13
2.435744666e-13
2.214313312e-13
2.013012061e-13
1.830011026e-13
1.663646353e-13
1.512405776e-13
1.374914389e-13
1.249922077e-13
1.136292879e-13
1.032993465e-13
9.390850497e-14
8.537135863e-14
7.761033283e-14
7.055484463e-14
6.414077124e-14
5.830979136e-14
5.300889851e-14
4.818990706e-14
4.38090105e-14
6.633604457e-12
6.030549504e-12
5.482317738e-12
4.983925209e-12
4.530841101e-12
4.118946456e-12
3.74449678e-12
3.40408798e-12
3.094625436e-12
2.81329585e-12
2.557541687e-12
2.325037892e-12
2.113670813e-12
1.921518919e-12
1.746835382e-12
1.588032162e-12
1.44366561e-12
1.312423278e-12
1.193112067e-12
1.084647341e-12
9.860430305e-13
8.964027543e-13
8.149115988e-13
7.408287262e-13
6.734806641e-13
6.122551393e-13
5.565955858e-13
5.059959871e-13
4.599963565e-13
4.181785006e-13
3.80162276e-13
3.456020704e-13
3.141836911e-13
2.856215499e-13
2.596559426e-13
2.360508655e-13
2.145916939e-13
1.950833541e-13
1.773485097e-13
1.612259146e-13
1.465690133e-13
1.332445621e-13
1.211314109e-13
1.101194724e-13
1.001086053e-13
9.100783092e-14
8.273438251e-14
7.52130816e-14
6.837552543e-14
6.215957187e-14
5.650870104e-14
5.137154377e-14
4.670140276e-14
4.245582465e-14
6.428703695e-12
5.844276084e-12
5.312978265e-12
4.829980234e-12
4.390891124e-12
3.991719204e-12
3.628835641e-12
3.298941491e-12
2.999037719e-12
2.726397925e-12
2.478543573e-12
2.253221425e-12
2.048383116e-12
1.862166467e-12
1.692878607e-12
1.538980548e-12
1.399073234e-12
1.271884754e-12
1.156258864e-12
1.051144429e-12
9.555858379e-13
8.687143975e-13
7.897403652e-13
7.179457865e-13
6.526779916e-13
5.933436191e-13
5.394032946e-13
4.903666314e-13
4.457878512e-13
4.052616778e-13
3.684197097e-13
3.349270101e-13
3.044790911e-13
2.767991859e-13
2.51635612e-13
2.287596556e-13
2.079633214e-13
1.89057561e-13
1.718705158e-13
1.562459202e-13
1.420417457e-13
1.291288642e-13
1.173898676e-13
1.067180691e-13
9.701642071e-14
8.819675377e-14
8.017885812e-14
7.288987741e-14
6.626352172e-14
6.023956839e-14
5.476324336e-14
4.978476413e-14
4.525887584e-14
4.114443642e-14
6.230131957e-12
5.663756322e-12
5.14886939e-12
4.680790348e-12
4.255263955e-12
3.868421778e-12
3.516747072e-12
3.197042791e-12
2.906402538e-12
2.642184124e-12
2.401985572e-12
2.183623242e-12
1.98511204e-12
1.804647308e-12
1.640588463e-12
1.491444053e-12
1.355858238e-12
1.232598395e-12
1.120543991e-12
1.018676363e-12
9.260694145e-13
8.418812852e-13
7.653466267e-13
6.957696606e-13
6.32517877e-13
5.750162425e-13
5.22742043e-13
4.752200391e-13
4.320182217e-13
3.927438329e-13
3.570398506e-13
3.245816836e-13
2.950742492e-13
2.682493292e-13
2.438630154e-13
2.216936584e-13
2.015396876e-13
1.832178941e-13
1.665617275e-13
1.514197492e-13
1.376543174e-13
1.251402929e-13
1.13763894e-13
1.034217292e-13
9.401974826e-14
8.547250585e-14
7.770226937e-14
7.06384329e-14
6.421675408e-14
5.837887044e-14
5.307169978e-14
4.824699733e-14
4.386090604e-14
3.987355466e-14
6.03769377e-12
5.488812515e-12
4.989829566e-12
4.53620869e-12
4.123826083e-12
3.748932804e-12
3.408120732e-12
3.098291573e-12
2.816628703e-12
2.560571547e-12
2.32779232e-12
2.116174832e-12
1.923795303e-12
1.748904819e-12
1.589913473e-12
1.445375881e-12
1.313978082e-12
1.194525525e-12
1.085932292e-12
9.872111812e-13
8.974647042e-13
8.158770032e-13
7.417063701e-13
6.742785183e-13
6.129804748e-13
5.572549681e-13
5.065954297e-13
4.605412998e-13
4.186739131e-13
3.806126434e-13
3.460114964e-13
3.145559071e-13
2.859599071e-13
2.599635633e-13
2.363305013e-13
2.148459181e-13
1.953144692e-13
1.775586047e-13
1.614169188e-13
1.467426505e-13
1.334024095e-13
1.212749219e-13
1.102499206e-13
1.002272078e-13
9.111563803e-14
8.283240541e-14
7.530217833e-14
6.845653176e-14
6.223320769e-14
5.657564636e-14
5.143240518e-14
4.675672958e-14
4.25061172e-14
3.864192833e-14
5.85119963e-12
5.319272388e-12
4.835702178e-12
4.396092882e-12
3.996448077e-12
3.633134616e-12
3.302849652e-12
3.002590591e-12
2.72962781e-12
2.481479826e-12
2.255890756e-12
2.050809773e-12
1.864372523e-12
1.69488411e-12
1.540803738e-12
1.400730667e-12
1.273391523e-12
1.157628654e-12
1.052389682e-12
9.56717899e-13
8.697435387e-13
7.906759437e-13
7.18796316e-13
6.534511963e-13
5.940465456e-13
5.400423055e-13
4.909475545e-13
4.463159586e-13
4.057417846e-13
3.688561632e-13
3.353237871e-13
3.048398076e-13
2.771270897e-13
2.519337289e-13
2.290306522e-13
2.082096914e-13
1.892815359e-13
1.7207412e-13
1.564310234e-13
1.422100184e-13
1.292818349e-13
1.175289449e-13
1.068444872e-13
9.713135899e-14
8.830123021e-14
8.027385263e-14
7.297622152e-14
6.634202538e-14
6.031092925e-14
5.482812041e-14
4.984374525e-14
4.531249335e-14
4.119317519e-14
3.744834458e-14
5.670466116e-12
5.154969194e-12
4.686335637e-12
4.260305119e-12
3.873004655e-12
3.520913323e-12
3.200830295e-12
2.909845722e-12
2.645314292e-12
2.404831174e-12
2.186210162e-12
1.98746378e-12
1.806785256e-12
1.642532049e-12
1.493210955e-12
1.357464501e-12
1.234058645e-12
1.121871492e-12
1.019883171e-12
9.271665252e-13
8.428786536e-13
7.662533209e-13
6.965939315e-13
6.332672104e-13
5.756974674e-13
5.233613256e-13
4.757830272e-13
4.325300247e-13
3.932091173e-13
3.574628294e-13
3.249662108e-13
2.954238291e-13
2.685671095e-13
2.441519284e-13
2.219562884e-13
2.017784514e-13
1.834349541e-13
1.667590458e-13
1.515991376e-13
1.37817395e-13
1.252885409e-13
1.138986775e-13
1.035442444e-13
9.413113803e-14
8.557375677e-14
7.77943311e-14
7.072211129e-14
6.429283408e-14
5.844802817e-14
5.313457388e-14
4.830415751e-14
4.391286821e-14
3.992078872e-14
3.629162949e-14
5.495314946e-12
4.995740857e-12
4.541582604e-12
4.128711452e-12
3.753374049e-12
3.412158227e-12
3.101962025e-12
2.819965477e-12
2.563604979e-12
2.33054998e-12
2.118681804e-12
1.926074363e-12
1.750976695e-12
1.591796994e-12
1.447088177e-12
1.315534703e-12
1.195940647e-12
1.087218766e-12
9.883806934e-13
8.985279091e-13
8.168435483e-13
7.425850433e-13
6.750773154e-13
6.137066504e-13
5.5791514e-13
5.071955736e-13
4.610868889e-13
4.19169899e-13
3.810635484e-13
3.464214033e-13
3.149285506e-13
2.862986835e-13
2.602715228e-13
2.366104856e-13
2.151004316e-13
1.95545854e-13
1.777689566e-13
1.616081391e-13
1.46916495e-13
1.335604473e-13
1.214185884e-13
1.103805387e-13
1.003459367e-13
9.122358534e-14
8.293052721e-14
7.539139493e-14
6.853762411e-14
6.230693647e-14
5.664266679e-14
5.149333617e-14
4.681212325e-14
4.255647349e-14
3.868770263e-14
3.517064203e-14
5.325574072e-12
4.841430973e-12
4.40130089e-12
4.001182621e-12
3.637438748e-12
3.306762499e-12
3.006147727e-12
2.732861569e-12
2.484419608e-12
2.258563279e-12
2.053239349e-12
1.866581222e-12
1.696892022e-12
1.542629109e-12
1.4023901e-12
1.274900088e-12
1.159000087e-12
1.053636439e-12
9.578513054e-13
8.707739198e-13
7.916126491e-13
7.196478623e-13
6.542253325e-13
5.947503023e-13
5.406820962e-13
4.915291704e-13
4.468447041e-13
4.062224582e-13
3.692931476e-13
3.35721039e-13
3.052009467e-13
2.774554071e-13
2.522321809e-13
2.293019927e-13
2.084563474e-13
1.895057773e-13
1.722779778e-13
1.566163402e-13
1.423784959e-13
1.294349936e-13
1.17668176e-13
1.069710728e-13
9.724642242e-14
8.840584492e-14
8.036894516e-14
7.306268377e-14
6.64206142e-14
6.038238184e-14
5.489307175e-14
4.990279515e-14
4.536617688e-14
4.124197686e-14
3.749270571e-14
3.408428109e-14
5.161076158e-12
4.691887414e-12
4.265352201e-12
3.877592904e-12
3.52508446e-12
3.204622237e-12
2.913292943e-12
2.648448129e-12
2.407680118e-12
2.188800106e-12
1.989818282e-12
1.808925707e-12
1.644477917e-12
1.494979923e-12
1.359072658e-12
1.235520595e-12
1.123200548e-12
1.021091404e-12
9.282649097e-13
8.438771963e-13
7.671610824e-13
6.974191653e-13
6.340174261e-13
5.763794783e-13
5.23981347e-13
4.763466714e-13
4.330424321e-13
3.936749383e-13
3.578863111e-13
3.253511878e-13
2.957738092e-13
2.688852821e-13
2.444411583e-13
2.222192446e-13
2.020174859e-13
1.836522665e-13
1.669566044e-13
1.517787282e-13
1.379806666e-13
1.254369671e-13
1.140336064e-13
1.036669185e-13
9.424264604e-14
8.567513892e-14
7.788648531e-14
7.080590189e-14
6.436899454e-14
5.851727289e-14
5.319751824e-14
4.836138279e-14
4.396489293e-14
3.996808243e-14
3.633461988e-14
3.303147569e-14
5.001659262e-12
4.546962963e-12
4.133602699e-12
3.75782063e-12
3.416200574e-12
3.105636886e-12
2.823306261e-12
2.566642055e-12
2.333310959e-12
2.12119178e-12
1.928356167e-12
1.753051057e-12
1.593682781e-12
1.448802527e-12
1.317093207e-12
1.197357458e-12
1.088506786e-12
9.89551621e-13
8.995923797e-13
8.178112598e-13
7.434647766e-13
6.758770692e-13
6.144337022e-13
5.585760929e-13
5.077964511e-13
4.616331299e-13
4.196664852e-13
3.815149866e-13
3.468318094e-13
3.15301641e-13
2.866378574e-13
2.605798714e-13
2.368907852e-13
2.153552687e-13
1.957775081e-13
1.779795592e-13
1.617995978e-13
1.470905405e-13
1.337186777e-13
1.215624317e-13
1.105113016e-13
1.004648231e-13
9.13316504e-14
8.302877906e-14
7.548070376e-14
6.861882757e-14
6.238074537e-14
5.670977349e-14
5.155433705e-14
4.686758163e-14
4.260689189e-14
3.873353609e-14
3.521230504e-14
3.201118939e-14
4.84716647e-12
4.40651497e-12
4.005922706e-12
3.641747909e-12
3.310679919e-12
3.009709017e-12
2.736099108e-12
2.487362824e-12
2.261238931e-12
2.055671755e-12
1.868792508e-12
1.698902276e-12
1.544456616e-12
1.404051468e-12
1.276410426e-12
1.160373112e-12
1.054884653e-12
9.589860456e-13
8.718054931e-13
7.925504536e-13
7.205004075e-13
6.5500037e-13
5.954548847e-13
5.413226225e-13
4.921114779e-13
4.473740636e-13
4.067036975e-13
3.697306341e-13
3.361187617e-13
3.055625067e-13
2.77784099e-13
2.52531e-13
2.295736296e-13
2.087033088e-13
1.897302721e-13
1.724820718e-13
1.56801882e-13
1.425471626e-13
1.295883339e-13
1.178075739e-13
1.070977945e-13
9.736163469e-14
8.851057025e-14
8.046416055e-14
7.314923253e-14
6.649930808e-14
6.045390969e-14
5.495810454e-14
4.996191081e-14
4.541992133e-14
4.129083709e-14
3.75371227e-14
3.412465652e-14
3.102241791e-14
4.697445807e-12
4.270405277e-12
3.88218662e-12
3.529260559e-12
3.208418691e-12
2.916744265e-12
2.651585697e-12
2.41053245e-12
2.191393137e-12
1.992175578e-12
1.811068711e-12
1.646426097e-12
1.496750999e-12
1.360682725e-12
1.236984296e-12
1.124531176e-12
1.022301075e-12
9.293646106e-13
8.448769159e-13
7.680699287e-13
6.982453851e-13
6.347685314e-13
5.770623041e-13
5.246020946e-13
4.769109979e-13
4.335554457e-13
3.941413175e-13
3.583102886e-13
3.257366293e-13
2.961242047e-13
2.692038243e-13
2.447307503e-13
2.224824938e-13
2.022568214e-13
1.838698292e-13
1.671543963e-13
1.519585407e-13
1.381441251e-13
1.255855725e-13
1.141686999e-13
1.037897272e-13
9.43543007e-14
8.577663046e-14
7.797876057e-14
7.088977813e-14
6.444525845e-14
5.858659206e-14
5.32605429e-14
4.841867303e-14
4.401697782e-14
4.001543391e-14
3.637766533e-14
3.307060437e-14
3.00641886e-14
4.552349595e-12
4.13849963e-12
3.762272396e-12
3.420247628e-12
3.109316027e-12
2.826650934e-12
2.569682668e-12
2.336075152e-12
2.123704683e-12
1.93064062e-12
1.75512784e-12
1.59557076e-12
1.450518874e-12
1.318653521e-12
1.198775929e-12
1.089796296e-12
9.907239116e-13
9.006580988e-13
8.187800871e-13
7.443455387e-13
6.766777579e-13
6.151615976e-13
5.592378188e-13
5.083980171e-13
4.621800182e-13
4.201636461e-13
3.819669542e-13
3.472426856e-13
3.156751719e-13
2.869774254e-13
2.608885704e-13
2.371714285e-13
2.156103832e-13
1.960094479e-13
1.78190399e-13
1.619912777e-13
1.472647966e-13
1.338770851e-13
1.217064451e-13
1.106422205e-13
1.005838368e-13
9.143985483e-14
8.312713442e-14
7.557012763e-14
6.870011195e-14
6.245465266e-14
5.677695063e-14
5.161541419e-14
4.692310155e-14
4.26573673e-14
3.877942437e-14
3.525402034e-14
3.204910895e-14
2.913555631e-14
4.411735279e-12
4.010668434e-12
3.646062218e-12
3.314602011e-12
3.013274557e-12
2.739340507e-12
2.490309552e-12
2.263917774e-12
2.058107067e-12
1.871006424e-12
1.700914934e-12
1.5462863e-12
1.40571482e-12
1.277922562e-12
1.161747785e-12
1.056134347e-12
9.601221395e-13
8.72838306e-13
7.934893664e-13
7.213539743e-13
6.557763359e-13
5.961603049e-13
5.419639162e-13
4.926944693e-13
4.479040656e-13
4.071855076e-13
3.701686463e-13
3.365169512e-13
3.059245042e-13
2.781131821e-13
2.528301673e-13
2.298456075e-13
2.089505462e-13
1.899550503e-13
1.726864015e-13
1.569876434e-13
1.427160381e-13
1.297418502e-13
1.179471405e-13
1.07224671e-13
9.747697363e-14
8.861543364e-14
8.055947899e-14
7.323589526e-14
6.657808265e-14
6.052553494e-14
5.502320744e-14
5.002110206e-14
4.547372695e-14
4.133975397e-14
3.758159408e-14
3.416508377e-14
3.105916663e-14
2.823560866e-14
4.275464325e-12
3.886785748e-12
3.533441594e-12
3.212219626e-12
2.920199662e-12
2.654726965e-12
2.413388151e-12
2.193989228e-12
1.994535661e-12
1.813214237e-12
1.648376582e-12
1.498524162e-12
1.362294694e-12
1.238449721e-12
1.125863383e-12
1.023512164e-12
9.304656094e-13
8.458778241e-13
7.689798376e-13
6.990725843e-13
6.355205269e-13
5.777459331e-13
5.252235781e-13
4.774759801e-13
4.340690754e-13
3.94608244e-13
3.587347702e-13
3.261225184e-13
2.964750197e-13
2.695227418e-13
2.45020676e-13
2.2274607e-13
2.024964213e-13
1.840876638e-13
1.67352414e-13
1.521385637e-13
1.383077839e-13
1.257343465e-13
1.143039551e-13
1.039126844e-13
9.44660767e-14
8.587825452e-14
7.807113452e-14
7.097376376e-14
6.452159959e-14
5.865600473e-14
5.332363471e-14
4.847603581e-14
4.406912134e-14
4.00628397e-14
3.642076294e-14
3.310978279e-14
3.009980211e-14
2.736345902e-14
4.143402497e-12
3.766729541e-12
3.424299587e-12
3.11299962e-12
2.829999656e-12
2.572726961e-12
2.338842692e-12
2.126220629e-12
1.932927844e-12
1.75720713e-12
1.597461031e-12
1.452237297e-12
1.320215726e-12
1.200196113e-12
1.091087377e-12
9.918976127e-13
9.017251078e-13
8.197500955e-13
7.452273571e-13
6.774794201e-13
6.158903778e-13
5.59900343e-13
5.090003143e-13
4.627275584e-13
4.206614192e-13
3.824194659e-13
3.476540628e-13
3.16049148e-13
2.873174101e-13
2.611976423e-13
2.374524037e-13
2.158658224e-13
1.962416509e-13
1.784015087e-13
1.621831823e-13
1.47439262e-13
1.340356915e-13
1.218506261e-13
1.107733002e-13
1.007029981e-13
9.154818011e-14
8.322562117e-14
7.565964984e-14
6.87815048e-14
6.252863702e-14
5.684422041e-14
5.167655825e-14
4.697869343e-14
4.270790106e-14
3.882536666e-14
3.529578746e-14
3.208707786e-14
2.917007037e-14
2.651824827e-14
4.015419766e-12
3.650381604e-12
3.318528735e-12
3.0168443e-12
2.742585729e-12
2.493259754e-12
2.266599777e-12
2.060545251e-12
1.873222956e-12
1.702929959e-12
1.548118148e-12
1.407380131e-12
1.279436484e-12
1.163124075e-12
1.057385524e-12
9.612595645e-13
8.738723366e-13
7.944293945e-13
7.22208538e-13
6.565532208e-13
5.968665604e-13
5.426059636e-13
4.932781511e-13
4.484346828e-13
4.076678959e-13
3.706071721e-13
3.369156138e-13
3.062869216e-13
2.784426588e-13
2.531296866e-13
2.301178985e-13
2.091980904e-13
1.901800766e-13
1.728909863e-13
1.571736167e-13
1.428851113e-13
1.298955545e-13
1.180868653e-13
1.073516994e-13
9.759245197e-14
8.872041088e-14
8.065492178e-14
7.332265057e-14
6.665695986e-14
6.059723264e-14
5.50883981e-14
5.008035632e-14
4.552760065e-14
4.138872586e-14
3.762611642e-14
3.420555998e-14
3.109596202e-14
2.826905598e-14
2.56991442e-14
3.891390309e-12
3.537627552e-12
3.216025052e-12
2.923659134e-12
2.657871941e-12
2.416247219e-12
2.196588382e-12
1.996898528e-12
1.815362299e-12
1.650329362e-12
1.500299423e-12
1.363908563e-12
1.239916877e-12
1.127197159e-12
1.024724691e-12
9.315678987e-13
8.468799129e-13
7.698908276e-13
6.999007501e-13
6.362734134e-13
5.78430372e-13
5.258457923e-13
4.780416317e-13
4.345833015e-13
3.95075731e-13
3.591597496e-13
3.26508866e-13
2.968262418e-13
2.698420407e-13
2.45310943e-13
2.230099498e-13
2.027363187e-13
1.843057389e-13
1.675506791e-13
1.523187922e-13
1.384716343e-13
1.258833027e-13
1.144393638e-13
1.040357888e-13
9.457798785e-14
8.597998895e-14
7.816362903e-14
7.105783916e-14
6.459804024e-14
5.872548764e-14
5.338681159e-14
4.853345967e-14
4.412133084e-14
4.011029883e-14
3.646390996e-14
3.314900867e-14
3.013546088e-14
2.739587314e-14
2.490534154e-14
3.771191961e-12
3.428356327e-12
3.116687574e-12
2.833352336e-12
2.575774852e-12
2.341613502e-12
2.128739548e-12
1.93521777e-12
1.759288882e-12
1.599353528e-12
1.453957756e-12
1.321779775e-12
1.201617979e-12
1.092379979e-12
9.930727093e-13
9.027933699e-13
8.207212502e-13
7.461102252e-13
6.782820207e-13
6.166200229e-13
5.605636534e-13
5.096033209e-13
4.632757486e-13
4.211597714e-13
3.828725217e-13
3.480659232e-13
3.164235692e-13
2.876577902e-13
2.615070846e-13
2.377337103e-13
2.161215563e-13
1.964741428e-13
1.786128519e-13
1.62375327e-13
1.476139269e-13
1.341944839e-13
1.219949842e-13
1.109045288e-13
1.008223023e-13
9.16566366e-14
8.332421509e-14
7.574928907e-14
6.886298482e-14
6.260271797e-14
5.691155842e-14
5.173778488e-14
4.703434464e-14
4.275849888e-14
3.887136074e-14
3.533760255e-14
3.212509285e-14
2.920462836e-14
2.654966177e-14
2.413605841e-14
3.654706122e-12
3.32246011e-12
3.020418286e-12
2.745834801e-12
2.496213457e-12
2.269284961e-12
2.062986329e-12
1.875442116e-12
1.704947379e-12
1.549952162e-12
1.409047423e-12
1.280952199e-12
1.164502001e-12
1.058638181e-12
9.623983473e-13
8.749075863e-13
7.953705377e-13
7.23064123e-13
6.573310187e-13
5.975736574e-13
5.432487758e-13
4.938625231e-13
4.489659323e-13
4.081508475e-13
3.710462272e-13
3.373147465e-13
3.066497721e-13
2.787725201e-13
2.534295663e-13
2.303905119e-13
2.094459214e-13
1.904053838e-13
1.730957984e-13
1.573598236e-13
1.430543785e-13
1.300494398e-13
1.182267623e-13
1.074788727e-13
9.770806933e-14
8.882551575e-14
8.075046887e-14
7.34095197e-14
6.673592191e-14
6.066902428e-14
5.515365516e-14
5.013969087e-14
4.558153207e-14
4.143776006e-14
3.767068915e-14
3.424608286e-14
3.113280224e-14
2.830254603e-14
2.572958694e-14
2.339053576e-14
3.541818492e-12
3.219834991e-12
2.927122723e-12
2.661020653e-12
2.419109686e-12
2.199190624e-12
1.999264204e-12
1.817512912e-12
1.652284466e-12
1.502076786e-12
1.365524354e-12
1.241385774e-12
1.128532522e-12
1.025938656e-12
9.326715059e-13
8.478831851e-13
7.708029001e-13
7.007299071e-13
6.370271861e-13
5.791156276e-13
5.264687489e-13
4.786079532e-13
4.350981414e-13
3.955437649e-13
3.595852429e-13
3.268956701e-13
2.971778844e-13
2.701617131e-13
2.456015598e-13
2.232741424e-13
2.029764945e-13
1.845240867e-13
1.677491648e-13
1.524992474e-13
1.386356731e-13
1.260324347e-13
1.145749395e-13
1.041590338e-13
9.469003393e-14
8.608184727e-14
7.825622479e-14
7.1142025e-14
6.467456325e-14
5.879506173e-14
5.345005295e-14
4.859096145e-14
4.417359639e-14
4.015781842e-14
3.650710589e-14
3.318827985e-14
3.017116314e-14
2.742832872e-14
2.493484394e-14
2.266804206e-14
3.432417786e-12
3.120379804e-12
2.836708916e-12
2.578826284e-12
2.344387532e-12
2.131261393e-12
1.937510358e-12
1.761373052e-12
1.601248229e-12
1.455680207e-12
1.323345646e-12
1.203041493e-12
1.093674086e-12
9.94249168e-13
9.038628807e-13
8.216935259e-13
7.469941189e-13
6.790855606e-13
6.173505075e-13
5.612277379e-13
5.10207031e-13
4.638245733e-13
4.216587051e-13
3.833260955e-13
3.484782707e-13
3.167984228e-13
2.879985686e-13
2.618168805e-13
2.380153483e-13
2.163775866e-13
1.967068983e-13
1.788244537e-13
1.625676804e-13
1.477888068e-13
1.343534546e-13
1.221395086e-13
1.110359159e-13
1.009417397e-13
9.176522098e-14
8.342292646e-14
7.583902405e-14
6.894456971e-14
6.267687678e-14
5.697898298e-14
5.179907237e-14
4.709006988e-14
4.280914966e-14
3.89174122e-14
3.537946393e-14
3.216315073e-14
2.92392276e-14
2.658111463e-14
2.416464932e-14
2.196786507e-14
3.326396194e-12
3.023996539e-12
2.749087766e-12
2.499170693e-12
2.271973358e-12
2.065430326e-12
1.877663933e-12
1.706967212e-12
1.551788374e-12
1.410716703e-12
1.282469733e-12
1.165881573e-12
1.05989234e-12
9.635384896e-13
8.759440821e-13
7.963128e-13
7.239207315e-13
6.58109754e-13
5.982815925e-13
5.438923605e-13
4.944475971e-13
4.494978152e-13
4.086343795e-13
3.714857995e-13
3.377143652e-13
3.070130543e-13
2.791027789e-13
2.53729799e-13
2.30663456e-13
2.096940483e-13
1.906309543e-13
1.733008682e-13
1.575462392e-13
1.432238601e-13
1.302035032e-13
1.183668254e-13
1.076062039e-13
9.782381976e-14
8.893074821e-14
8.084613309e-14
7.349648462e-14
6.681498834e-14
6.074089386e-14
5.521899838e-14
5.019908646e-14
4.563553712e-14
4.14868473e-14
3.771531903e-14
3.428665201e-14
3.11696853e-14
2.833607721e-14
2.576006887e-14
2.34182441e-14
2.12893148e-14
3.223649476e-12
2.930590431e-12
2.664173123e-12
2.421975562e-12
2.201795967e-12
2.001632697e-12
1.819666089e-12
1.654241899e-12
1.503856272e-12
1.367142064e-12
1.242856425e-12
1.129869474e-12
1.027154069e-12
9.337764251e-13
8.488876598e-13
7.717160524e-13
7.015600518e-13
6.377818634e-13
5.798016921e-13
5.270924509e-13
4.791749521e-13
4.356135925e-13
3.960123588e-13
3.600112352e-13
3.27282943e-13
2.975299434e-13
2.70481769e-13
2.458925173e-13
2.235386543e-13
2.032169559e-13
1.847426885e-13
1.679478992e-13
1.526799039e-13
1.387999187e-13
1.261817385e-13
1.147106756e-13
1.042824314e-13
9.480220841e-14
8.618382871e-14
7.834893359e-14
7.122630326e-14
6.475118703e-14
5.886471099e-14
5.351337748e-14
4.864852209e-14
4.422593302e-14
4.020538917e-14
3.6550357e-14
3.322759567e-14
3.020690675e-14
2.7460824e-14
2.496438417e-14
2.269489438e-14
2.063172409e-14
3.124076404e-12
2.840069457e-12
2.581881328e-12
2.34716484e-12
2.133786219e-12
1.939805654e-12
1.763459686e-12
1.603145169e-12
1.457404699e-12
1.324913362e-12
1.204466695e-12
1.09496972e-12
9.954270193e-13
9.04933653e-13
8.226669579e-13
7.478790508e-13
6.798900502e-13
6.18081862e-13
5.618925999e-13
5.108114579e-13
4.643740495e-13
4.221582265e-13
3.837802078e-13
3.48891098e-13
3.171737273e-13
2.883397474e-13
2.621270453e-13
2.382973139e-13
2.166339239e-13
1.969399283e-13
1.790362997e-13
1.627602731e-13
1.479638803e-13
1.345126244e-13
1.222841984e-13
1.111674571e-13
1.010613237e-13
9.187392878e-14
8.352175623e-14
7.592886775e-14
6.90262434e-14
6.275113254e-14
5.704647978e-14
5.186043989e-14
4.714585165e-14
4.285986886e-14
3.89635128e-14
3.542137838e-14
3.220125152e-14
2.927386657e-14
2.661260566e-14
2.419327663e-14
2.199388754e-14
1.999444508e-14
3.027579046e-12
2.752344586e-12
2.502131445e-12
2.274664946e-12
2.067877225e-12
1.879888387e-12
1.708989443e-12
1.553626766e-12
1.412387969e-12
1.283989062e-12
1.167262786e-12
1.061147985e-12
9.646799872e-13
8.769818056e-13
7.972561875e-13
7.247783505e-13
6.588894135e-13
5.989903741e-13
5.445367019e-13
4.950333687e-13
4.500303321e-13
4.091184835e-13
3.719258959e-13
3.381144508e-13
3.073767752e-13
2.794334275e-13
2.540303908e-13
2.309367189e-13
2.099424738e-13
1.90856792e-13
1.735061757e-13
1.577328876e-13
1.4339353e-13
1.303577603e-13
1.185070494e-13
1.077336851e-13
9.793971287e-14
8.90361008e-14
8.094191253e-14
7.358355534e-14
6.689414122e-14
6.081285776e-14
5.528441193e-14
5.025855991e-14
4.568959721e-14
4.153600108e-14
3.775999676e-14
3.43272728e-14
3.120661013e-14
2.836964708e-14
2.579058795e-14
2.344598784e-14
2.13145341e-14
1.937685099e-14
2.934062302e-12
2.667329364e-12
2.42484488e-12
2.204404433e-12
2.004004031e-12
1.821821847e-12
1.656201679e-12