/*--------------------------------*- C++ -*----------------------------------*\
| =========                 |                                                 |
| \\      /  F ield         | OpenFOAM: The Open Source CFD Toolbox           |
|  \\    /   O peration     | Version:  2.3.0                                 |
|   \\  /    A nd           | Web:      www.OpenFOAM.org                      |
|    \\/     M anipulation  |                                                 |
\*---------------------------------------------------------------------------*/
FoamFile
{
    version     2.0;
    format      ascii;
    class       dictionary;
    object      blockMeshDict;
}
// * * * * * * * * * * * * * * * * * * * * * * * * * * * * * * * * * * * * * //

convertToMeters 1;

vertices
(
        (0   1.0    -.1  )//0
        (8.0355   1.0    -.1  )//1
        (8.0355   2.0    -.1  )//2
        (0   2.0    -.1  )//3
        (0   1.0     .1  )//4
        (8.0355   1.0     .1  )//5
        (8.0355   2.0     .1  )//6
        (0   2.0     .1  )//7
        (8.0355   3.036  -.1  )//8
        (0   3.036  -.1  )//9
        (0   3.036   .1  )//10
        (8.0355   3.036   .1  )//11
);

blocks
(
        //hex (0 1 3 2 6 7 9 8) (40 25 30) simpleGrading (1 10.7028 1)
        hex (0 1 2 3 4 5 6 7)   (120 65 1) simpleGrading (1 10 1)
        hex (3 2 8 9 7 6 11 10) (120 65 1) simpleGrading (1 .1 1)
);

/*
edges
(
      spline 0 1 ((0.25 -0.1 0.1))
      spline 3 2 ((0.75  0.1 0.1))
);
*/

//EDGES-START
edges
(
spline 0 1 (
(0 1 -0.1)
(0.0075 1 -0.1)
(0.015 1 -0.1)
(0.0225 1 -0.1)
(0.03 1 -0.1)
(0.0375 1 -0.1)
(0.045 1 -0.1)
(0.0525 1 -0.1)
(0.06 1 -0.1)
(0.0675 1 -0.1)
(0.075 1 -0.1)
(0.0825 1 -0.1)
(0.09 0.999853500361723 -0.1)
(0.0975 0.999546574964562 -0.1)
(0.105 0.999147670842287 -0.1)
(0.1125 0.998646794216239 -0.1)
(0.12 0.998033951307763 -0.1)
(0.1275 0.997299148338199 -0.1)
(0.135 0.996432391528892 -0.1)
(0.1425 0.995423687101183 -0.1)
(0.15 0.994263041276416 -0.1)
(0.1575 0.992940460275932 -0.1)
(0.165 0.991445950321075 -0.1)
(0.1725 0.989769517633187 -0.1)
(0.18 0.987901168433611 -0.1)
(0.1875 0.985830908943689 -0.1)
(0.195 0.983548745384765 -0.1)
(0.2025 0.98104468397818 -0.1)
(0.21 0.978308730945277 -0.1)
(0.2175 0.9753308925074 -0.1)
(0.225 0.97210117488589 -0.1)
(0.2325 0.968609584302091 -0.1)
(0.24 0.964846126977344 -0.1)
(0.2475 0.960802791061489 -0.1)
(0.255 0.956483795770945 -0.1)
(0.2625 0.951898021524438 -0.1)
(0.27 0.947054357916131 -0.1)
(0.2775 0.941961694540189 -0.1)
(0.285 0.936628920990776 -0.1)
(0.2925 0.931064926862056 -0.1)
(0.3 0.925278601748195 -0.1)
(0.3075 0.919278835243357 -0.1)
(0.315 0.913074516941706 -0.1)
(0.3225 0.906674536437407 -0.1)
(0.33 0.900087783324624 -0.1)
(0.3375 0.893323147197522 -0.1)
(0.345 0.886389517650265 -0.1)
(0.3525 0.879295784277018 -0.1)
(0.36 0.872050836671945 -0.1)
(0.3675 0.864663564429211 -0.1)
(0.375 0.857142857142802 -0.1)
(0.3825 0.849497397992501 -0.1)
(0.39 0.841735044498589 -0.1)
(0.3975 0.833863447766786 -0.1)
(0.405 0.825890258902813 -0.1)
(0.4125 0.81782312901239 -0.1)
(0.42 0.809669709201238 -0.1)
(0.4275 0.801437650575077 -0.1)
(0.435 0.793134604239629 -0.1)
(0.4425 0.784768221300614 -0.1)
(0.45 0.776346152863751 -0.1)
(0.4575 0.767876050034763 -0.1)
(0.465 0.75936556391937 -0.1)
(0.4725 0.750822345623292 -0.1)
(0.48 0.742254046252249 -0.1)
(0.4875 0.733668316911963 -0.1)
(0.495 0.725072808708154 -0.1)
(0.5025 0.716475172746543 -0.1)
(0.51 0.70788306013285 -0.1)
(0.5175 0.699304121972797 -0.1)
(0.525 0.690746009372103 -0.1)
(0.5325 0.682216373436488 -0.1)
(0.54 0.673722597050246 -0.1)
(0.5475 0.665267557822977 -0.1)
(0.555 0.656850395032062 -0.1)
(0.5625 0.648470134799476 -0.1)
(0.57 0.640125803247193 -0.1)
(0.5775 0.631816426497189 -0.1)
(0.585 0.623541030671437 -0.1)
(0.5925 0.615298641891911 -0.1)
(0.6 0.607088286280585 -0.1)
(0.6075 0.598908989959435 -0.1)
(0.615 0.590759779050434 -0.1)
(0.6225 0.582639679675556 -0.1)
(0.63 0.574547717956777 -0.1)
(0.6375 0.56648292001607 -0.1)
(0.645 0.558444311975409 -0.1)
(0.6525 0.550430919956769 -0.1)
(0.66 0.542441770082123 -0.1)
(0.6675 0.534475888473448 -0.1)
(0.675 0.526532301252716 -0.1)
(0.6825 0.518610034541902 -0.1)
(0.69 0.51070811446298 -0.1)
(0.6975 0.502825567137925 -0.1)
(0.705 0.494961418688711 -0.1)
(0.7125 0.487114695237311 -0.1)
(0.72 0.479284422905702 -0.1)
(0.7275 0.471469627815856 -0.1)
(0.735 0.463669336089748 -0.1)
(0.7425 0.455882573849353 -0.1)
(0.75 0.448108367216644 -0.1)
(0.7575 0.440345742313596 -0.1)
(0.765 0.432593725262183 -0.1)
(0.7725 0.42485134218438 -0.1)
(0.78 0.417117619202161 -0.1)
(0.7875 0.4093915824375 -0.1)
(0.795 0.401672258012371 -0.1)
(0.8025 0.393958672048749 -0.1)
(0.81 0.386250262824374 -0.1)
(0.8175 0.378549012147046 -0.1)
(0.825 0.370857871154237 -0.1)
(0.8325 0.363179792890967 -0.1)
(0.84 0.355517730402261 -0.1)
(0.8475 0.34787463673314 -0.1)
(0.855 0.340253464928624 -0.1)
(0.8625 0.332657168033739 -0.1)
(0.87 0.325088699093504 -0.1)
(0.8775 0.317551011152942 -0.1)
(0.885 0.310047057257075 -0.1)
(0.8925 0.302579790450927 -0.1)
(0.9 0.295152163779517 -0.1)
(0.9075 0.287767130287869 -0.1)
(0.915 0.280427643021005 -0.1)
(0.9225 0.273136655023946 -0.1)
(0.93 0.265897119341715 -0.1)
(0.9375 0.258711989019335 -0.1)
(0.945 0.251584217101826 -0.1)
(0.9525 0.244516756634211 -0.1)
(0.96 0.237512560661514 -0.1)
(0.9675 0.230574582228754 -0.1)
(0.975 0.223705774380955 -0.1)
(0.9825 0.216909090163139 -0.1)
(0.99 0.210187482620327 -0.1)
(0.9975 0.203543904797542 -0.1)
(1.005 0.196981309739806 -0.1)
(1.0125 0.190502650492141 -0.1)
(1.02 0.18411088009957 -0.1)
(1.0275 0.177808951607114 -0.1)
(1.035 0.171599818059795 -0.1)
(1.0425 0.165486432502635 -0.1)
(1.05 0.159471747980657 -0.1)
(1.0575 0.153558717538884 -0.1)
(1.065 0.147750294222336 -0.1)
(1.0725 0.142049429701804 -0.1)
(1.08 0.136458377775419 -0.1)
(1.0875 0.130977561007447 -0.1)
(1.095 0.125607105228765 -0.1)
(1.1025 0.120347136270252 -0.1)
(1.11 0.115197779962784 -0.1)
(1.1175 0.110159162137241 -0.1)
(1.125 0.105231408624498 -0.1)
(1.1325 0.100414645255435 -0.1)
(1.14 0.0957089978609283 -0.1)
(1.1475 0.0911145922718564 -0.1)
(1.155 0.0866315543190961 -0.1)
(1.1625 0.0822600098335264 -0.1)
(1.17 0.0780000846460236 -0.1)
(1.1775 0.0738519045874666 -0.1)
(1.185 0.0698155954887323 -0.1)
(1.1925 0.065891283180699 -0.1)
(1.2 0.0620790934942436 -0.1)
(1.2075 0.0583791522602445 -0.1)
(1.215 0.0547915853095795 -0.1)
(1.2225 0.0513165184731258 -0.1)
(1.23 0.0479540775817618 -0.1)
(1.2375 0.044704388466364 -0.1)
(1.245 0.0415675769578117 -0.1)
(1.2525 0.0385437688869814 -0.1)
(1.26 0.0356330900847515 -0.1)
(1.2675 0.0328356663819988 -0.1)
(1.275 0.0301516236096024 -0.1)
(1.2825 0.0275810875984384 -0.1)
(1.29 0.0251241841793858 -0.1)
(1.2975 0.0227810391833216 -0.1)
(1.305 0.020551778441124 -0.1)
(1.3125 0.0184365277836701 -0.1)
(1.32 0.0164354130418385 -0.1)
(1.3275 0.0145485600465056 -0.1)
(1.335 0.0127760946285508 -0.1)
(1.3425 0.0111181426188502 -0.1)
(1.35 0.00957482984828257 -0.1)
(1.3575 0.00814628214772479 -0.1)
(1.365 0.00683262534805575 -0.1)
(1.3725 0.00563398528015166 -0.1)
(1.38 0.00455048777489175 -0.1)
(1.3875 0.00358225866315216 -0.1)
(1.395 0.00272942377581192 -0.1)
(1.4025 0.00199210894374819 -0.1)
(1.41 0.00137043999783872 -0.1)
(1.4175 0.000864542768961212 -0.1)
(1.425 0.00047454308799336 -0.1)
(1.4325 0.000200566785812896 -0.1)
(1.44 4.2739693297695e-05 -0.1)
(1.44785714285714 0 -0.1)
(1.45785714285714 0 -0.1)
(1.46785714285714 0 -0.1)
(1.47785714285714 0 -0.1)
(1.48785714285714 0 -0.1)
(1.49785714285714 0 -0.1)
(1.50785714285714 0 -0.1)
(1.51785714285714 0 -0.1)
(1.52785714285714 0 -0.1)
(1.53785714285714 0 -0.1)
(1.54785714285714 0 -0.1)
(1.55785714285714 0 -0.1)
(1.56785714285714 0 -0.1)
(1.57785714285714 0 -0.1)
(1.58785714285714 0 -0.1)
(1.59785714285714 0 -0.1)
(1.60785714285714 0 -0.1)
(1.61785714285714 0 -0.1)
(1.62785714285714 0 -0.1)
(1.63785714285714 0 -0.1)
(1.64785714285714 0 -0.1)
(1.65785714285714 0 -0.1)
(1.66785714285714 0 -0.1)
(1.67785714285714 0 -0.1)
(1.68785714285714 0 -0.1)
(1.69785714285714 0 -0.1)
(1.70785714285714 0 -0.1)
(1.71785714285714 0 -0.1)
(1.72785714285714 0 -0.1)
(1.73785714285714 0 -0.1)
(1.74785714285714 0 -0.1)
(1.75785714285714 0 -0.1)
(1.76785714285714 0 -0.1)
(1.77785714285714 0 -0.1)
(1.78785714285714 0 -0.1)
(1.79785714285714 0 -0.1)
(1.80785714285714 0 -0.1)
(1.81785714285714 0 -0.1)
(1.82785714285714 0 -0.1)
(1.83785714285714 0 -0.1)
(1.84785714285714 0 -0.1)
(1.85785714285714 0 -0.1)
(1.86785714285714 0 -0.1)
(1.87785714285714 0 -0.1)
(1.88785714285714 0 -0.1)
(1.89785714285714 0 -0.1)
(1.90785714285714 0 -0.1)
(1.91785714285714 0 -0.1)
(1.92785714285714 0 -0.1)
(1.93785714285714 0 -0.1)
(1.94785714285714 0 -0.1)
(1.95785714285714 0 -0.1)
(1.96785714285714 0 -0.1)
(1.97785714285714 0 -0.1)
(1.98785714285714 0 -0.1)
(1.99785714285714 0 -0.1)
(2.00785714285714 0 -0.1)
(2.01785714285714 0 -0.1)
(2.02785714285714 0 -0.1)
(2.03785714285714 0 -0.1)
(2.04785714285714 0 -0.1)
(2.05785714285714 0 -0.1)
(2.06785714285714 0 -0.1)
(2.07785714285714 0 -0.1)
(2.08785714285714 0 -0.1)
(2.09785714285714 0 -0.1)
(2.10785714285714 0 -0.1)
(2.11785714285714 0 -0.1)
(2.12785714285714 0 -0.1)
(2.13785714285714 0 -0.1)
(2.14785714285714 0 -0.1)
(2.15785714285714 0 -0.1)
(2.16785714285714 0 -0.1)
(2.17785714285714 0 -0.1)
(2.18785714285714 0 -0.1)
(2.19785714285714 0 -0.1)
(2.20785714285714 0 -0.1)
(2.21785714285714 0 -0.1)
(2.22785714285714 0 -0.1)
(2.23785714285714 0 -0.1)
(2.24785714285714 0 -0.1)
(2.25785714285714 0 -0.1)
(2.26785714285714 0 -0.1)
(2.27785714285714 0 -0.1)
(2.28785714285714 0 -0.1)
(2.29785714285714 0 -0.1)
(2.30785714285714 0 -0.1)
(2.31785714285714 0 -0.1)
(2.32785714285714 0 -0.1)
(2.33785714285714 0 -0.1)
(2.34785714285714 0 -0.1)
(2.35785714285714 0 -0.1)
(2.36785714285714 0 -0.1)
(2.37785714285714 0 -0.1)
(2.38785714285714 0 -0.1)
(2.39785714285714 0 -0.1)
(2.40785714285714 0 -0.1)
(2.41785714285714 0 -0.1)
(2.42785714285714 0 -0.1)
(2.43785714285714 0 -0.1)
(2.44785714285714 0 -0.1)
(2.45785714285714 0 -0.1)
(2.46785714285714 0 -0.1)
(2.47785714285714 0 -0.1)
(2.48785714285714 0 -0.1)
(2.49785714285714 0 -0.1)
(2.50785714285714 0 -0.1)
(2.51785714285714 0 -0.1)
(2.52785714285714 0 -0.1)
(2.53785714285714 0 -0.1)
(2.54785714285714 0 -0.1)
(2.55785714285714 0 -0.1)
(2.56785714285714 0 -0.1)
(2.57785714285714 0 -0.1)
(2.58785714285714 0 -0.1)
(2.59785714285714 0 -0.1)
(2.60785714285714 0 -0.1)
(2.61785714285714 0 -0.1)
(2.62785714285714 0 -0.1)
(2.63785714285714 0 -0.1)
(2.64785714285714 0 -0.1)
(2.65785714285714 0 -0.1)
(2.66785714285714 0 -0.1)
(2.67785714285714 0 -0.1)
(2.68785714285714 0 -0.1)
(2.69785714285714 0 -0.1)
(2.70785714285714 0 -0.1)
(2.71785714285714 0 -0.1)
(2.72785714285714 0 -0.1)
(2.73785714285714 0 -0.1)
(2.74785714285714 0 -0.1)
(2.75785714285714 0 -0.1)
(2.76785714285714 0 -0.1)
(2.77785714285714 0 -0.1)
(2.78785714285714 0 -0.1)
(2.79785714285714 0 -0.1)
(2.80785714285714 0 -0.1)
(2.81785714285714 0 -0.1)
(2.82785714285714 0 -0.1)
(2.83785714285714 0 -0.1)
(2.84785714285714 0 -0.1)
(2.85785714285714 0 -0.1)
(2.86785714285714 0 -0.1)
(2.87785714285714 0 -0.1)
(2.88785714285714 0 -0.1)
(2.89785714285714 0 -0.1)
(2.90785714285714 0 -0.1)
(2.91785714285714 0 -0.1)
(2.92785714285714 0 -0.1)
(2.93785714285714 0 -0.1)
(2.94785714285714 0 -0.1)
(2.95785714285714 0 -0.1)
(2.96785714285714 0 -0.1)
(2.97785714285714 0 -0.1)
(2.98785714285714 0 -0.1)
(2.99785714285714 0 -0.1)
(3.00785714285714 0 -0.1)
(3.01785714285714 0 -0.1)
(3.02785714285714 0 -0.1)
(3.03785714285714 0 -0.1)
(3.04785714285714 0 -0.1)
(3.05785714285714 0 -0.1)
(3.06785714285714 0 -0.1)
(3.07785714285714 0 -0.1)
(3.08785714285714 0 -0.1)
(3.09785714285714 0 -0.1)
(3.10785714285714 0 -0.1)
(3.11785714285714 0 -0.1)
(3.12785714285714 0 -0.1)
(3.13785714285714 0 -0.1)
(3.14785714285714 0 -0.1)
(3.15785714285714 0 -0.1)
(3.16785714285714 0 -0.1)
(3.17785714285714 0 -0.1)
(3.18785714285714 0 -0.1)
(3.19785714285714 0 -0.1)
(3.20785714285714 0 -0.1)
(3.21785714285714 0 -0.1)
(3.22785714285714 0 -0.1)
(3.23785714285714 0 -0.1)
(3.24785714285714 0 -0.1)
(3.25785714285714 0 -0.1)
(3.26785714285714 0 -0.1)
(3.27785714285714 0 -0.1)
(3.28785714285714 0 -0.1)
(3.29785714285714 0 -0.1)
(3.30785714285714 0 -0.1)
(3.31785714285714 0 -0.1)
(3.32785714285714 0 -0.1)
(3.33785714285714 0 -0.1)
(3.34785714285714 0 -0.1)
(3.35785714285714 0 -0.1)
(3.36785714285714 0 -0.1)
(3.37785714285714 0 -0.1)
(3.38785714285714 0 -0.1)
(3.39785714285714 0 -0.1)
(3.40785714285714 0 -0.1)
(3.41785714285714 0 -0.1)
(3.42785714285714 0 -0.1)
(3.43785714285714 0 -0.1)
(3.44785714285714 0 -0.1)
(3.45785714285714 0 -0.1)
(3.46785714285714 0 -0.1)
(3.47785714285714 0 -0.1)
(3.48785714285714 0 -0.1)
(3.49785714285714 0 -0.1)
(3.50785714285714 0 -0.1)
(3.51785714285714 0 -0.1)
(3.52785714285714 0 -0.1)
(3.53785714285714 0 -0.1)
(3.54785714285714 0 -0.1)
(3.55785714285714 0 -0.1)
(3.56785714285714 0 -0.1)
(3.57785714285714 0 -0.1)
(3.58785714285714 0 -0.1)
(3.59785714285714 0 -0.1)
(3.60785714285714 0 -0.1)
(3.61785714285714 0 -0.1)
(3.62785714285714 0 -0.1)
(3.63785714285714 0 -0.1)
(3.64785714285714 0 -0.1)
(3.65785714285714 0 -0.1)
(3.66785714285714 0 -0.1)
(3.67785714285714 0 -0.1)
(3.68785714285714 0 -0.1)
(3.69785714285714 0 -0.1)
(3.70785714285714 0 -0.1)
(3.71785714285714 0 -0.1)
(3.72785714285714 0 -0.1)
(3.73785714285714 0 -0.1)
(3.74785714285714 0 -0.1)
(3.75785714285714 0 -0.1)
(3.76785714285714 0 -0.1)
(3.77785714285714 0 -0.1)
(3.78785714285714 0 -0.1)
(3.79785714285714 0 -0.1)
(3.80785714285714 0 -0.1)
(3.81785714285714 0 -0.1)
(3.82785714285714 0 -0.1)
(3.83785714285714 0 -0.1)
(3.84785714285714 0 -0.1)
(3.85785714285714 0 -0.1)
(3.86785714285714 0 -0.1)
(3.87785714285714 0 -0.1)
(3.88785714285714 0 -0.1)
(3.89785714285714 0 -0.1)
(3.90785714285714 0 -0.1)
(3.91785714285714 0 -0.1)
(3.92785714285714 0 -0.1)
(3.93785714285714 0 -0.1)
(3.94785714285714 0 -0.1)
(3.95785714285714 0 -0.1)
(3.96785714285714 0 -0.1)
(3.97785714285714 0 -0.1)
(3.98785714285714 0 -0.1)
(3.99785714285714 0 -0.1)
(4.00785714285714 0 -0.1)
(4.01785714285714 0 -0.1)
(4.02785714285714 0 -0.1)
(4.03785714285714 0 -0.1)
(4.04785714285714 0 -0.1)
(4.05785714285714 0 -0.1)
(4.06785714285714 0 -0.1)
(4.07785714285714 0 -0.1)
(4.08785714285714 0 -0.1)
(4.09785714285714 0 -0.1)
(4.10785714285714 0 -0.1)
(4.11785714285714 0 -0.1)
(4.12785714285714 0 -0.1)
(4.13785714285714 0 -0.1)
(4.14785714285714 0 -0.1)
(4.15785714285714 0 -0.1)
(4.16785714285714 0 -0.1)
(4.17785714285714 0 -0.1)
(4.18785714285714 0 -0.1)
(4.19785714285714 0 -0.1)
(4.20785714285714 0 -0.1)
(4.21785714285714 0 -0.1)
(4.22785714285714 0 -0.1)
(4.23785714285714 0 -0.1)
(4.24785714285714 0 -0.1)
(4.25785714285714 0 -0.1)
(4.26785714285714 0 -0.1)
(4.27785714285714 0 -0.1)
(4.28785714285714 0 -0.1)
(4.29785714285714 0 -0.1)
(4.30785714285714 0 -0.1)
(4.31785714285714 0 -0.1)
(4.32785714285714 0 -0.1)
(4.33785714285714 0 -0.1)
(4.34785714285714 0 -0.1)
(4.35785714285714 0 -0.1)
(4.36785714285714 0 -0.1)
(4.37785714285714 0 -0.1)
(4.38785714285714 0 -0.1)
(4.39785714285714 0 -0.1)
(4.40785714285714 0 -0.1)
(4.41785714285714 0 -0.1)
(4.42785714285714 0 -0.1)
(4.43785714285714 0 -0.1)
(4.44785714285714 0 -0.1)
(4.45785714285714 0 -0.1)
(4.46785714285714 0 -0.1)
(4.47785714285714 0 -0.1)
(4.48785714285714 0 -0.1)
(4.49785714285714 0 -0.1)
(4.50785714285714 0 -0.1)
(4.51785714285714 0 -0.1)
(4.52785714285714 0 -0.1)
(4.53785714285714 0 -0.1)
(4.54785714285714 0 -0.1)
(4.55785714285714 0 -0.1)
(4.56785714285714 0 -0.1)
(4.57785714285714 0 -0.1)
(4.58785714285714 0 -0.1)
(4.59785714285714 0 -0.1)
(4.60785714285714 0 -0.1)
(4.61785714285714 0 -0.1)
(4.62785714285714 0 -0.1)
(4.63785714285714 0 -0.1)
(4.64785714285714 0 -0.1)
(4.65785714285714 0 -0.1)
(4.66785714285714 0 -0.1)
(4.67785714285714 0 -0.1)
(4.68785714285714 0 -0.1)
(4.69785714285714 0 -0.1)
(4.70785714285714 0 -0.1)
(4.71785714285714 0 -0.1)
(4.72785714285714 0 -0.1)
(4.73785714285714 0 -0.1)
(4.74785714285714 0 -0.1)
(4.75785714285714 0 -0.1)
(4.76785714285714 0 -0.1)
(4.77785714285714 0 -0.1)
(4.78785714285714 0 -0.1)
(4.79785714285714 0 -0.1)
(4.80785714285714 0 -0.1)
(4.81785714285714 0 -0.1)
(4.82785714285714 0 -0.1)
(4.83785714285714 0 -0.1)
(4.84785714285714 0 -0.1)
(4.85785714285714 0 -0.1)
(4.86785714285714 0 -0.1)
(4.87785714285714 0 -0.1)
(4.88785714285714 0 -0.1)
(4.89785714285714 0 -0.1)
(4.90785714285714 0 -0.1)
(4.91785714285714 0 -0.1)
(4.92785714285714 0 -0.1)
(4.93785714285714 0 -0.1)
(4.94785714285714 0 -0.1)
(4.95785714285714 0 -0.1)
(4.96785714285714 0 -0.1)
(4.97785714285714 0 -0.1)
(4.98785714285714 0 -0.1)
(4.99785714285714 0 -0.1)
(5.00785714285714 0 -0.1)
(5.01785714285714 0 -0.1)
(5.02785714285714 0 -0.1)
(5.03785714285714 0 -0.1)
(5.04785714285714 0 -0.1)
(5.05785714285714 0 -0.1)
(5.06785714285714 0 -0.1)
(5.07785714285714 0 -0.1)
(5.08785714285714 0 -0.1)
(5.09785714285714 0 -0.1)
(5.10785714285714 0 -0.1)
(5.11785714285714 0 -0.1)
(5.12785714285714 0 -0.1)
(5.13785714285714 0 -0.1)
(5.14785714285714 0 -0.1)
(5.15785714285714 0 -0.1)
(5.16785714285714 0 -0.1)
(5.17785714285714 0 -0.1)
(5.18785714285714 0 -0.1)
(5.19785714285714 0 -0.1)
(5.20785714285714 0 -0.1)
(5.21785714285714 0 -0.1)
(5.22785714285714 0 -0.1)
(5.23785714285714 0 -0.1)
(5.24785714285714 0 -0.1)
(5.25785714285714 0 -0.1)
(5.26785714285714 0 -0.1)
(5.27785714285714 0 -0.1)
(5.28785714285714 0 -0.1)
(5.29785714285714 0 -0.1)
(5.30785714285714 0 -0.1)
(5.31785714285714 0 -0.1)
(5.32785714285714 0 -0.1)
(5.33785714285714 0 -0.1)
(5.34785714285714 0 -0.1)
(5.35785714285714 0 -0.1)
(5.36785714285714 0 -0.1)
(5.37785714285714 0 -0.1)
(5.38785714285714 0 -0.1)
(5.39785714285714 0 -0.1)
(5.40785714285714 0 -0.1)
(5.41785714285714 0 -0.1)
(5.42785714285714 0 -0.1)
(5.43785714285714 0 -0.1)
(5.44785714285714 0 -0.1)
(5.45785714285714 0 -0.1)
(5.46785714285714 0 -0.1)
(5.47785714285714 0 -0.1)
(5.48785714285714 0 -0.1)
(5.49785714285714 0 -0.1)
(5.50785714285714 0 -0.1)
(5.51785714285714 0 -0.1)
(5.52785714285714 0 -0.1)
(5.53785714285714 0 -0.1)
(5.54785714285714 0 -0.1)
(5.55785714285714 0 -0.1)
(5.56785714285714 0 -0.1)
(5.57785714285714 0 -0.1)
(5.58785714285714 0 -0.1)
(5.59785714285714 0 -0.1)
(5.60785714285714 0 -0.1)
(5.61785714285714 0 -0.1)
(5.62785714285714 0 -0.1)
(5.63785714285714 0 -0.1)
(5.64785714285714 0 -0.1)
(5.65785714285714 0 -0.1)
(5.66785714285714 0 -0.1)
(5.67785714285714 0 -0.1)
(5.68785714285714 0 -0.1)
(5.69785714285714 0 -0.1)
(5.70785714285714 0 -0.1)
(5.71785714285714 0 -0.1)
(5.72785714285714 0 -0.1)
(5.73785714285714 0 -0.1)
(5.74785714285714 0 -0.1)
(5.75785714285714 0 -0.1)
(5.76785714285714 0 -0.1)
(5.77785714285714 0 -0.1)
(5.78785714285714 0 -0.1)
(5.79785714285714 0 -0.1)
(5.80785714285714 0 -0.1)
(5.81785714285714 0 -0.1)
(5.82785714285714 0 -0.1)
(5.83785714285714 0 -0.1)
(5.84785714285714 0 -0.1)
(5.85785714285714 0 -0.1)
(5.86785714285714 0 -0.1)
(5.87785714285714 0 -0.1)
(5.88785714285714 0 -0.1)
(5.89785714285714 0 -0.1)
(5.90785714285714 0 -0.1)
(5.91785714285714 0 -0.1)
(5.92785714285714 0 -0.1)
(5.93785714285714 0 -0.1)
(5.94785714285714 0 -0.1)
(5.95785714285714 0 -0.1)
(5.96785714285714 0 -0.1)
(5.97785714285714 0 -0.1)
(5.98785714285714 0 -0.1)
(5.99785714285714 0 -0.1)
(6.00785714285714 0 -0.1)
(6.01785714285714 0 -0.1)
(6.02785714285714 0 -0.1)
(6.03785714285714 0 -0.1)
(6.04785714285714 0 -0.1)
(6.05785714285714 0 -0.1)
(6.06785714285714 0 -0.1)
(6.07785714285714 0 -0.1)
(6.08785714285714 0 -0.1)
(6.09785714285714 0 -0.1)
(6.10785714285714 0 -0.1)
(6.11785714285714 0 -0.1)
(6.12785714285714 0 -0.1)
(6.13785714285714 0 -0.1)
(6.14785714285714 0 -0.1)
(6.15785714285714 0 -0.1)
(6.16785714285714 0 -0.1)
(6.17785714285714 0 -0.1)
(6.18785714285714 0 -0.1)
(6.19785714285714 0 -0.1)
(6.20785714285714 0 -0.1)
(6.21785714285714 0 -0.1)
(6.22785714285714 0 -0.1)
(6.23785714285714 0 -0.1)
(6.24785714285714 0 -0.1)
(6.25785714285714 0 -0.1)
(6.26785714285714 0 -0.1)
(6.27785714285714 0 -0.1)
(6.28785714285714 0 -0.1)
(6.29785714285714 0 -0.1)
(6.30785714285714 0 -0.1)
(6.31785714285714 0 -0.1)
(6.32785714285714 0 -0.1)
(6.33785714285714 0 -0.1)
(6.34785714285714 0 -0.1)
(6.35785714285714 0 -0.1)
(6.36785714285714 0 -0.1)
(6.37785714285714 0 -0.1)
(6.38785714285714 0 -0.1)
(6.39785714285714 0 -0.1)
(6.40785714285714 0 -0.1)
(6.41785714285714 0 -0.1)
(6.42785714285714 0 -0.1)
(6.43785714285714 0 -0.1)
(6.44785714285714 0 -0.1)
(6.45785714285714 0 -0.1)
(6.46785714285714 0 -0.1)
(6.47785714285714 0 -0.1)
(6.48785714285714 0 -0.1)
(6.49785714285714 0 -0.1)
(6.50785714285714 0 -0.1)
(6.51785714285714 0 -0.1)
(6.52785714285714 0 -0.1)
(6.53785714285714 0 -0.1)
(6.54785714285714 0 -0.1)
(6.55785714285714 0 -0.1)
(6.56785714285714 0 -0.1)
(6.57785714285714 0 -0.1)
(6.58785714285714 0 -0.1)
(6.59571428571429 4.27396932978853e-05 -0.1)
(6.60321428571429 0.000200566785812769 -0.1)
(6.61071428571429 0.000474543087993487 -0.1)
(6.61821428571429 0.000864542768961101 -0.1)
(6.62571428571429 0.00137043999783886 -0.1)
(6.63321428571429 0.0019921089437483 -0.1)
(6.64071428571429 0.00272942377581226 -0.1)
(6.64821428571429 0.00358225866315225 -0.1)
(6.65571428571429 0.00455048777489158 -0.1)
(6.66321428571429 0.0056339852801517 -0.1)
(6.67071428571429 0.00683262534805581 -0.1)
(6.67821428571429 0.0081462821477249 -0.1)
(6.68571428571429 0.00957482984828263 -0.1)
(6.69321428571429 0.0111181426188502 -0.1)
(6.70071428571429 0.0127760946285508 -0.1)
(6.70821428571429 0.0145485600465056 -0.1)
(6.71571428571429 0.0164354130418385 -0.1)
(6.72321428571429 0.0184365277836701 -0.1)
(6.73071428571429 0.020551778441124 -0.1)
(6.73821428571429 0.0227810391833216 -0.1)
(6.74571428571429 0.0251241841793858 -0.1)
(6.75321428571429 0.0275810875984384 -0.1)
(6.76071428571429 0.0301516236096021 -0.1)
(6.76821428571429 0.0328356663819988 -0.1)
(6.77571428571429 0.0356330900847517 -0.1)
(6.78321428571429 0.0385437688869816 -0.1)
(6.79071428571429 0.0415675769578115 -0.1)
(6.79821428571429 0.0447043884663645 -0.1)
(6.80571428571429 0.047954077581762 -0.1)
(6.81321428571429 0.0513165184731262 -0.1)
(6.82071428571429 0.0547915853095796 -0.1)
(6.82821428571429 0.0583791522602451 -0.1)
(6.83571428571429 0.0620790934942439 -0.1)
(6.84321428571429 0.0658912831806991 -0.1)
(6.85071428571429 0.0698155954887321 -0.1)
(6.85821428571429 0.0738519045874666 -0.1)
(6.86571428571429 0.0780000846460239 -0.1)
(6.87321428571429 0.0822600098335262 -0.1)
(6.88071428571429 0.0866315543190961 -0.1)
(6.88821428571429 0.0911145922718564 -0.1)
(6.89571428571429 0.0957089978609283 -0.1)
(6.90321428571429 0.100414645255435 -0.1)
(6.91071428571429 0.105231408624498 -0.1)
(6.91821428571429 0.110159162137241 -0.1)
(6.92571428571429 0.115197779962784 -0.1)
(6.93321428571429 0.120347136270252 -0.1)
(6.94071428571429 0.125607105228765 -0.1)
(6.94821428571429 0.130977561007447 -0.1)
(6.95571428571429 0.136458377775419 -0.1)
(6.96321428571429 0.142049429701804 -0.1)
(6.97071428571429 0.147750294222336 -0.1)
(6.97821428571429 0.153558717538884 -0.1)
(6.98571428571429 0.159471747980658 -0.1)
(6.99321428571429 0.165486432502636 -0.1)
(7.00071428571429 0.171599818059795 -0.1)
(7.00821428571429 0.177808951607113 -0.1)
(7.01571428571429 0.18411088009957 -0.1)
(7.02321428571429 0.190502650492142 -0.1)
(7.03071428571429 0.196981309739807 -0.1)
(7.03821428571429 0.203543904797542 -0.1)
(7.04571428571429 0.210187482620327 -0.1)
(7.05321428571429 0.21690909016314 -0.1)
(7.06071428571429 0.223705774380954 -0.1)
(7.06821428571429 0.230574582228754 -0.1)
(7.07571428571429 0.237512560661514 -0.1)
(7.08321428571429 0.244516756634211 -0.1)
(7.09071428571429 0.251584217101826 -0.1)
(7.09821428571429 0.258711989019335 -0.1)
(7.10571428571429 0.265897119341715 -0.1)
(7.11321428571429 0.273136655023946 -0.1)
(7.12071428571429 0.280427643021005 -0.1)
(7.12821428571429 0.287767130287869 -0.1)
(7.13571428571429 0.295152163779517 -0.1)
(7.14321428571429 0.302579790450927 -0.1)
(7.15071428571429 0.310047057257076 -0.1)
(7.15821428571429 0.317551011152942 -0.1)
(7.16571428571429 0.325088699093504 -0.1)
(7.17321428571429 0.332657168033739 -0.1)
(7.18071428571429 0.340253464928625 -0.1)
(7.18821428571429 0.34787463673314 -0.1)
(7.19571428571429 0.355517730402261 -0.1)
(7.20321428571429 0.363179792890968 -0.1)
(7.21071428571429 0.370857871154237 -0.1)
(7.21821428571429 0.378549012147047 -0.1)
(7.22571428571429 0.386250262824374 -0.1)
(7.23321428571429 0.39395867204875 -0.1)
(7.24071428571429 0.401672258012372 -0.1)
(7.24821428571429 0.4093915824375 -0.1)
(7.25571428571429 0.417117619202161 -0.1)
(7.26321428571429 0.42485134218438 -0.1)
(7.27071428571429 0.432593725262183 -0.1)
(7.27821428571429 0.440345742313596 -0.1)
(7.28571428571429 0.448108367216644 -0.1)
(7.29321428571429 0.455882573849353 -0.1)
(7.30071428571429 0.463669336089748 -0.1)
(7.30821428571429 0.471469627815856 -0.1)
(7.31571428571429 0.479284422905703 -0.1)
(7.32321428571429 0.487114695237313 -0.1)
(7.33071428571429 0.494961418688711 -0.1)
(7.33821428571429 0.502825567137925 -0.1)
(7.34571428571429 0.510708114462981 -0.1)
(7.35321428571429 0.518610034541902 -0.1)
(7.36071428571429 0.526532301252716 -0.1)
(7.36821428571429 0.534475888473447 -0.1)
(7.37571428571429 0.542441770082124 -0.1)
(7.38321428571429 0.550430919956769 -0.1)
(7.39071428571429 0.558444311975409 -0.1)
(7.39821428571429 0.56648292001607 -0.1)
(7.40571428571429 0.574547717956778 -0.1)
(7.41321428571429 0.582639679675556 -0.1)
(7.42071428571429 0.590759779050434 -0.1)
(7.42821428571429 0.598908989959435 -0.1)
(7.43571428571429 0.607088286280584 -0.1)
(7.44321428571429 0.615298641891911 -0.1)
(7.45071428571429 0.623541030671437 -0.1)
(7.45821428571429 0.631816426497189 -0.1)
(7.46571428571429 0.640125803247193 -0.1)
(7.47321428571429 0.648470134799476 -0.1)
(7.48071428571429 0.656850395032062 -0.1)
(7.48821428571429 0.665267557822977 -0.1)
(7.49571428571429 0.673722597050246 -0.1)
(7.50321428571429 0.68221637343649 -0.1)
(7.51071428571429 0.690746009372104 -0.1)
(7.51821428571429 0.699304121972797 -0.1)
(7.52571428571429 0.707883060132851 -0.1)
(7.53321428571429 0.716475172746543 -0.1)
(7.54071428571429 0.725072808708154 -0.1)
(7.54821428571429 0.733668316911962 -0.1)
(7.55571428571429 0.742254046252249 -0.1)
(7.56321428571429 0.750822345623292 -0.1)
(7.57071428571429 0.75936556391937 -0.1)
(7.57821428571429 0.767876050034764 -0.1)
(7.58571428571429 0.776346152863752 -0.1)
(7.59321428571429 0.784768221300614 -0.1)
(7.60071428571429 0.793134604239629 -0.1)
(7.60821428571429 0.801437650575077 -0.1)
(7.61571428571429 0.809669709201238 -0.1)
(7.62321428571429 0.817823129012389 -0.1)
(7.63071428571429 0.825890258902813 -0.1)
(7.63821428571429 0.833863447766787 -0.1)
(7.64571428571429 0.841735044498589 -0.1)
(7.65321428571429 0.849497397992501 -0.1)
(7.66071428571429 0.857142857142802 -0.1)
(7.66821428571428 0.864663564429211 -0.1)
(7.67571428571428 0.872050836671945 -0.1)
(7.68321428571428 0.879295784277017 -0.1)
(7.69071428571429 0.886389517650266 -0.1)
(7.69821428571429 0.893323147197522 -0.1)
(7.70571428571429 0.900087783324624 -0.1)
(7.71321428571429 0.906674536437407 -0.1)
(7.72071428571429 0.913074516941706 -0.1)
(7.72821428571429 0.919278835243357 -0.1)
(7.73571428571428 0.925278601748195 -0.1)
(7.74321428571429 0.931064926862056 -0.1)
(7.75071428571429 0.936628920990776 -0.1)
(7.75821428571429 0.941961694540189 -0.1)
(7.76571428571429 0.947054357916131 -0.1)
(7.77321428571429 0.951898021524438 -0.1)
(7.78071428571428 0.956483795770946 -0.1)
(7.78821428571429 0.960802791061488 -0.1)
(7.79571428571429 0.964846126977344 -0.1)
(7.80321428571428 0.96860958430209 -0.1)
(7.81071428571429 0.97210117488589 -0.1)
(7.81821428571429 0.9753308925074 -0.1)
(7.82571428571429 0.978308730945278 -0.1)
(7.83321428571429 0.98104468397818 -0.1)
(7.84071428571429 0.983548745384765 -0.1)
(7.84821428571429 0.985830908943689 -0.1)
(7.85571428571428 0.987901168433611 -0.1)
(7.86321428571428 0.989769517633187 -0.1)
(7.87071428571428 0.991445950321075 -0.1)
(7.87821428571429 0.992940460275932 -0.1)
(7.88571428571429 0.994263041276416 -0.1)
(7.89321428571429 0.995423687101183 -0.1)
(7.90071428571429 0.996432391528892 -0.1)
(7.90821428571429 0.997299148338199 -0.1)
(7.91571428571429 0.998033951307763 -0.1)
(7.92321428571428 0.998646794216239 -0.1)
(7.93071428571429 0.999147670842287 -0.1)
(7.93821428571429 0.999546574964562 -0.1)
(7.94571428571429 0.999853500361723 -0.1)
(7.95321428571429 1 -0.1)
(7.96071428571429 1 -0.1)
(7.96821428571428 1 -0.1)
(7.97571428571429 1 -0.1)
(7.98321428571429 1 -0.1)
(7.99071428571428 1 -0.1)
(7.99821428571429 1 -0.1)
(8.00571428571429 1 -0.1)
(8.01321428571429 1 -0.1)
(8.02071428571429 1 -0.1)
(8.02821428571429 1 -0.1)
)
spline 4 5 (
(0 1 0.1)
(0.0075 1 0.1)
(0.015 1 0.1)
(0.0225 1 0.1)
(0.03 1 0.1)
(0.0375 1 0.1)
(0.045 1 0.1)
(0.0525 1 0.1)
(0.06 1 0.1)
(0.0675 1 0.1)
(0.075 1 0.1)
(0.0825 1 0.1)
(0.09 0.999853500361723 0.1)
(0.0975 0.999546574964562 0.1)
(0.105 0.999147670842287 0.1)
(0.1125 0.998646794216239 0.1)
(0.12 0.998033951307763 0.1)
(0.1275 0.997299148338199 0.1)
(0.135 0.996432391528892 0.1)
(0.1425 0.995423687101183 0.1)
(0.15 0.994263041276416 0.1)
(0.1575 0.992940460275932 0.1)
(0.165 0.991445950321075 0.1)
(0.1725 0.989769517633187 0.1)
(0.18 0.987901168433611 0.1)
(0.1875 0.985830908943689 0.1)
(0.195 0.983548745384765 0.1)
(0.2025 0.98104468397818 0.1)
(0.21 0.978308730945277 0.1)
(0.2175 0.9753308925074 0.1)
(0.225 0.97210117488589 0.1)
(0.2325 0.968609584302091 0.1)
(0.24 0.964846126977344 0.1)
(0.2475 0.960802791061489 0.1)
(0.255 0.956483795770945 0.1)
(0.2625 0.951898021524438 0.1)
(0.27 0.947054357916131 0.1)
(0.2775 0.941961694540189 0.1)
(0.285 0.936628920990776 0.1)
(0.2925 0.931064926862056 0.1)
(0.3 0.925278601748195 0.1)
(0.3075 0.919278835243357 0.1)
(0.315 0.913074516941706 0.1)
(0.3225 0.906674536437407 0.1)
(0.33 0.900087783324624 0.1)
(0.3375 0.893323147197522 0.1)
(0.345 0.886389517650265 0.1)
(0.3525 0.879295784277018 0.1)