/*--------------------------------*- C++ -*----------------------------------*\
  =========                 |
  \\      /  F ield         | OpenFOAM: The Open Source CFD Toolbox
   \\    /   O peration     | Website:  https://openfoam.org
    \\  /    A nd           | Version:  7
     \\/     M anipulation  |
\*---------------------------------------------------------------------------*/
FoamFile
{
    version     2.0;
    format      ascii;
    class       volVectorField;
    location    "constant";
    object      C;
}
// * * * * * * * * * * * * * * * * * * * * * * * * * * * * * * * * * * * * * //

dimensions      [0 1 0 0 0 0 0];

internalField   nonuniform List<vector> 
2209
(
(0.0005 4.597582821e-05 4.597582821e-05)
(0.0005 0.0001337478639 4.597582821e-05)
(0.0005 0.0002135406235 4.597582821e-05)
(0.0005 0.0002860794961 4.597582821e-05)
(0.0005 0.0003520239255 4.597582821e-05)
(0.0005 0.0004119734069 4.597582821e-05)
(0.0005 0.0004664729354 4.597582821e-05)
(0.0005 0.0005160179614 4.597582821e-05)
(0.0005 0.0005610588941 4.597582821e-05)
(0.0005 0.0006020051965 4.597582821e-05)
(0.0005 0.0006392291077 4.597582821e-05)
(0.0005 0.0006730690271 4.597582821e-05)
(0.0005 0.0007038325901 4.597582821e-05)
(0.0005 0.0007317994656 4.597582821e-05)
(0.0005 0.0007572238979 4.597582821e-05)
(0.0005 0.0007803370181 4.597582821e-05)
(0.0005 0.0008013489456 4.597582821e-05)
(0.0005 0.0008204506979 4.597582821e-05)
(0.0005 0.0008378159272 4.597582821e-05)
(0.0005 0.0008536024994 4.597582821e-05)
(0.0005 0.0008679539286 4.597582821e-05)
(0.0005 0.0008810006824 4.597582821e-05)
(0.0005 0.0008928613677 4.597582821e-05)
(0.0005 0.0009036438089 4.597582821e-05)
(0.0005 0.0009134460281 4.597582821e-05)
(0.0005 0.0009223571365 4.597582821e-05)
(0.0005 0.0009304581442 4.597582821e-05)
(0.0005 0.0009378226966 4.597582821e-05)
(0.0005 0.0009445177442 4.597582821e-05)
(0.0005 0.0009506041512 4.597582821e-05)
(0.0005 0.0009561372484 4.597582821e-05)
(0.0005 0.0009611673368 4.597582821e-05)
(0.0005 0.0009657401444 4.597582821e-05)
(0.0005 0.0009698972422 4.597582821e-05)
(0.0005 0.0009736764221 4.597582821e-05)
(0.0005 0.0009771120401 4.597582821e-05)
(0.0005 0.0009802353292 4.597582821e-05)
(0.0005 0.000983074683 4.597582821e-05)
(0.0005 0.0009856559138 4.597582821e-05)
(0.0005 0.0009880024871 4.597582821e-05)
(0.0005 0.0009901357356 4.597582821e-05)
(0.0005 0.0009920750524 4.597582821e-05)
(0.0005 0.0009938380677 4.597582821e-05)
(0.0005 0.0009954408089 4.597582821e-05)
(0.0005 0.0009968978463 4.597582821e-05)
(0.0005 0.0009982224258 4.597582821e-05)
(0.0005 0.0009994265889 4.597582821e-05)
(0.0005 4.597582821e-05 0.0001337478639)
(0.0005 0.0001337478639 0.0001337478639)
(0.0005 0.0002135406236 0.0001337478639)
(0.0005 0.0002860794961 0.0001337478639)
(0.0005 0.0003520239256 0.0001337478639)
(0.0005 0.0004119734069 0.0001337478639)
(0.0005 0.0004664729355 0.0001337478639)
(0.0005 0.0005160179614 0.0001337478639)
(0.0005 0.000561058894 0.0001337478639)
(0.0005 0.0006020051964 0.0001337478639)
(0.0005 0.0006392291078 0.0001337478639)
(0.0005 0.0006730690271 0.0001337478639)
(0.0005 0.0007038325902 0.0001337478639)
(0.0005 0.0007317994656 0.0001337478639)
(0.0005 0.0007572238979 0.0001337478639)
(0.0005 0.0007803370182 0.0001337478639)
(0.0005 0.0008013489457 0.0001337478639)
(0.0005 0.0008204506979 0.0001337478639)
(0.0005 0.0008378159273 0.0001337478639)
(0.0005 0.0008536024994 0.0001337478639)
(0.0005 0.0008679539286 0.0001337478639)
(0.0005 0.0008810006824 0.0001337478639)
(0.0005 0.0008928613677 0.0001337478639)
(0.0005 0.0009036438089 0.0001337478639)
(0.0005 0.0009134460282 0.0001337478639)
(0.0005 0.0009223571365 0.0001337478639)
(0.0005 0.0009304581442 0.0001337478639)
(0.0005 0.0009378226966 0.0001337478639)
(0.0005 0.0009445177442 0.0001337478639)
(0.0005 0.0009506041512 0.0001337478639)
(0.0005 0.0009561372484 0.0001337478639)
(0.0005 0.0009611673368 0.0001337478639)
(0.0005 0.0009657401444 0.0001337478639)
(0.0005 0.0009698972422 0.0001337478639)
(0.0005 0.0009736764221 0.0001337478639)
(0.0005 0.0009771120402 0.0001337478639)
(0.0005 0.0009802353292 0.0001337478639)
(0.0005 0.0009830746831 0.0001337478639)
(0.0005 0.0009856559137 0.0001337478639)
(0.0005 0.0009880024871 0.0001337478639)
(0.0005 0.0009901357356 0.0001337478639)
(0.0005 0.0009920750524 0.0001337478639)
(0.0005 0.0009938380677 0.0001337478639)
(0.0005 0.0009954408089 0.0001337478639)
(0.0005 0.0009968978464 0.0001337478639)
(0.0005 0.0009982224258 0.0001337478639)
(0.0005 0.0009994265889 0.0001337478639)
(0.0005 4.597582821e-05 0.0002135406235)
(0.0005 0.0001337478639 0.0002135406236)
(0.0005 0.0002135406236 0.0002135406236)
(0.0005 0.000286079496 0.0002135406236)
(0.0005 0.0003520239255 0.0002135406235)
(0.0005 0.0004119734069 0.0002135406235)
(0.0005 0.0004664729355 0.0002135406236)
(0.0005 0.0005160179614 0.0002135406236)
(0.0005 0.000561058894 0.0002135406235)
(0.0005 0.0006020051965 0.0002135406236)
(0.0005 0.0006392291078 0.0002135406236)
(0.0005 0.0006730690271 0.0002135406236)
(0.0005 0.0007038325901 0.0002135406236)
(0.0005 0.0007317994656 0.0002135406236)
(0.0005 0.0007572238979 0.0002135406236)
(0.0005 0.0007803370181 0.0002135406236)
(0.0005 0.0008013489457 0.0002135406236)
(0.0005 0.0008204506979 0.0002135406236)
(0.0005 0.0008378159272 0.0002135406235)
(0.0005 0.0008536024994 0.0002135406236)
(0.0005 0.0008679539286 0.0002135406235)
(0.0005 0.0008810006824 0.0002135406235)
(0.0005 0.0008928613677 0.0002135406235)
(0.0005 0.0009036438089 0.0002135406236)
(0.0005 0.0009134460282 0.0002135406236)
(0.0005 0.0009223571365 0.0002135406236)
(0.0005 0.0009304581442 0.0002135406236)
(0.0005 0.0009378226966 0.0002135406235)
(0.0005 0.0009445177442 0.0002135406236)
(0.0005 0.0009506041512 0.0002135406236)
(0.0005 0.0009561372484 0.0002135406236)
(0.0005 0.0009611673368 0.0002135406236)
(0.0005 0.0009657401444 0.0002135406236)
(0.0005 0.0009698972422 0.0002135406235)
(0.0005 0.0009736764221 0.0002135406235)
(0.0005 0.0009771120402 0.0002135406236)
(0.0005 0.0009802353292 0.0002135406235)
(0.0005 0.0009830746831 0.0002135406236)
(0.0005 0.0009856559138 0.0002135406236)
(0.0005 0.0009880024871 0.0002135406235)
(0.0005 0.0009901357356 0.0002135406235)
(0.0005 0.0009920750524 0.0002135406235)
(0.0005 0.0009938380677 0.0002135406236)
(0.0005 0.0009954408089 0.0002135406235)
(0.0005 0.0009968978463 0.0002135406235)
(0.0005 0.0009982224258 0.0002135406236)
(0.0005 0.0009994265889 0.0002135406235)
(0.0005 4.597582821e-05 0.0002860794961)
(0.0005 0.0001337478639 0.0002860794961)
(0.0005 0.0002135406236 0.000286079496)
(0.0005 0.0002860794961 0.0002860794961)
(0.0005 0.0003520239256 0.0002860794961)
(0.0005 0.0004119734069 0.0002860794961)
(0.0005 0.0004664729355 0.000286079496)
(0.0005 0.0005160179614 0.0002860794961)
(0.0005 0.000561058894 0.000286079496)
(0.0005 0.0006020051965 0.0002860794961)
(0.0005 0.0006392291077 0.000286079496)
(0.0005 0.0006730690271 0.0002860794961)
(0.0005 0.0007038325901 0.000286079496)
(0.0005 0.0007317994656 0.0002860794961)
(0.0005 0.0007572238979 0.000286079496)
(0.0005 0.0007803370181 0.000286079496)
(0.0005 0.0008013489456 0.000286079496)
(0.0005 0.0008204506979 0.0002860794961)
(0.0005 0.0008378159272 0.0002860794961)
(0.0005 0.0008536024994 0.000286079496)
(0.0005 0.0008679539286 0.0002860794961)
(0.0005 0.0008810006824 0.000286079496)
(0.0005 0.0008928613677 0.0002860794961)
(0.0005 0.0009036438089 0.000286079496)
(0.0005 0.0009134460282 0.0002860794961)
(0.0005 0.0009223571365 0.000286079496)
(0.0005 0.0009304581442 0.000286079496)
(0.0005 0.0009378226966 0.0002860794961)
(0.0005 0.0009445177443 0.0002860794961)
(0.0005 0.0009506041512 0.0002860794961)
(0.0005 0.0009561372484 0.000286079496)
(0.0005 0.0009611673368 0.000286079496)
(0.0005 0.0009657401444 0.0002860794961)
(0.0005 0.0009698972422 0.000286079496)
(0.0005 0.0009736764221 0.0002860794961)
(0.0005 0.0009771120401 0.0002860794961)
(0.0005 0.0009802353292 0.000286079496)
(0.0005 0.000983074683 0.000286079496)
(0.0005 0.0009856559138 0.0002860794961)
(0.0005 0.0009880024871 0.0002860794961)
(0.0005 0.0009901357356 0.0002860794961)
(0.0005 0.0009920750524 0.0002860794961)
(0.0005 0.0009938380677 0.000286079496)
(0.0005 0.0009954408089 0.0002860794961)
(0.0005 0.0009968978463 0.000286079496)
(0.0005 0.0009982224258 0.0002860794961)
(0.0005 0.0009994265889 0.000286079496)
(0.0005 4.597582821e-05 0.0003520239256)
(0.0005 0.0001337478639 0.0003520239256)
(0.0005 0.0002135406235 0.0003520239255)
(0.0005 0.0002860794961 0.0003520239256)
(0.0005 0.0003520239256 0.0003520239256)
(0.0005 0.0004119734069 0.0003520239256)
(0.0005 0.0004664729355 0.0003520239256)
(0.0005 0.0005160179614 0.0003520239256)
(0.0005 0.000561058894 0.0003520239255)
(0.0005 0.0006020051965 0.0003520239256)
(0.0005 0.0006392291077 0.0003520239256)
(0.0005 0.0006730690271 0.0003520239256)
(0.0005 0.0007038325902 0.0003520239256)
(0.0005 0.0007317994656 0.0003520239255)
(0.0005 0.0007572238979 0.0003520239256)
(0.0005 0.0007803370181 0.0003520239255)
(0.0005 0.0008013489456 0.0003520239255)
(0.0005 0.0008204506979 0.0003520239256)
(0.0005 0.0008378159272 0.0003520239256)
(0.0005 0.0008536024994 0.0003520239256)
(0.0005 0.0008679539286 0.0003520239256)
(0.0005 0.0008810006824 0.0003520239256)
(0.0005 0.0008928613677 0.0003520239255)
(0.0005 0.0009036438089 0.0003520239256)
(0.0005 0.0009134460282 0.0003520239255)
(0.0005 0.0009223571365 0.0003520239256)
(0.0005 0.0009304581442 0.0003520239255)
(0.0005 0.0009378226966 0.0003520239256)
(0.0005 0.0009445177443 0.0003520239256)
(0.0005 0.0009506041512 0.0003520239256)
(0.0005 0.0009561372484 0.0003520239255)
(0.0005 0.0009611673368 0.0003520239256)
(0.0005 0.0009657401444 0.0003520239255)
(0.0005 0.0009698972422 0.0003520239256)
(0.0005 0.0009736764221 0.0003520239255)
(0.0005 0.0009771120401 0.0003520239256)
(0.0005 0.0009802353292 0.0003520239255)
(0.0005 0.0009830746831 0.0003520239255)
(0.0005 0.0009856559138 0.0003520239255)
(0.0005 0.0009880024871 0.0003520239255)
(0.0005 0.0009901357356 0.0003520239255)
(0.0005 0.0009920750524 0.0003520239256)
(0.0005 0.0009938380677 0.0003520239255)
(0.0005 0.0009954408089 0.0003520239256)
(0.0005 0.0009968978463 0.0003520239256)
(0.0005 0.0009982224258 0.0003520239255)
(0.0005 0.0009994265889 0.0003520239255)
(0.0005 4.597582821e-05 0.0004119734069)
(0.0005 0.0001337478639 0.0004119734069)
(0.0005 0.0002135406235 0.0004119734069)
(0.0005 0.0002860794961 0.0004119734069)
(0.0005 0.0003520239256 0.0004119734069)
(0.0005 0.0004119734069 0.0004119734069)
(0.0005 0.0004664729355 0.0004119734069)
(0.0005 0.0005160179614 0.0004119734069)
(0.0005 0.000561058894 0.0004119734069)
(0.0005 0.0006020051964 0.0004119734069)
(0.0005 0.0006392291078 0.0004119734069)
(0.0005 0.0006730690271 0.0004119734069)
(0.0005 0.0007038325902 0.0004119734069)
(0.0005 0.0007317994657 0.0004119734069)
(0.0005 0.0007572238979 0.0004119734069)
(0.0005 0.0007803370182 0.0004119734069)
(0.0005 0.0008013489456 0.0004119734069)
(0.0005 0.0008204506979 0.0004119734069)
(0.0005 0.0008378159272 0.0004119734069)
(0.0005 0.0008536024994 0.0004119734069)
(0.0005 0.0008679539286 0.0004119734069)
(0.0005 0.0008810006824 0.0004119734069)
(0.0005 0.0008928613677 0.0004119734069)
(0.0005 0.0009036438089 0.0004119734069)
(0.0005 0.0009134460282 0.0004119734069)
(0.0005 0.0009223571366 0.0004119734069)
(0.0005 0.0009304581442 0.0004119734069)
(0.0005 0.0009378226966 0.0004119734069)
(0.0005 0.0009445177442 0.0004119734069)
(0.0005 0.0009506041512 0.0004119734069)
(0.0005 0.0009561372484 0.0004119734069)
(0.0005 0.0009611673368 0.0004119734069)
(0.0005 0.0009657401444 0.0004119734069)
(0.0005 0.0009698972422 0.0004119734069)
(0.0005 0.0009736764221 0.0004119734069)
(0.0005 0.0009771120402 0.0004119734069)
(0.0005 0.0009802353292 0.0004119734069)
(0.0005 0.0009830746831 0.0004119734069)
(0.0005 0.0009856559137 0.0004119734069)
(0.0005 0.0009880024871 0.0004119734069)
(0.0005 0.0009901357356 0.0004119734069)
(0.0005 0.0009920750524 0.0004119734069)
(0.0005 0.0009938380677 0.0004119734069)
(0.0005 0.0009954408089 0.0004119734069)
(0.0005 0.0009968978464 0.0004119734069)
(0.0005 0.0009982224258 0.0004119734069)
(0.0005 0.0009994265889 0.0004119734069)
(0.0005 4.597582821e-05 0.0004664729354)
(0.0005 0.0001337478639 0.0004664729354)
(0.0005 0.0002135406236 0.0004664729354)
(0.0005 0.0002860794961 0.0004664729354)
(0.0005 0.0003520239255 0.0004664729354)
(0.0005 0.0004119734069 0.0004664729355)
(0.0005 0.0004664729355 0.0004664729354)
(0.0005 0.0005160179614 0.0004664729354)
(0.0005 0.000561058894 0.0004664729354)
(0.0005 0.0006020051965 0.0004664729354)
(0.0005 0.0006392291077 0.0004664729354)
(0.0005 0.0006730690271 0.0004664729354)
(0.0005 0.0007038325901 0.0004664729354)
(0.0005 0.0007317994656 0.0004664729354)
(0.0005 0.0007572238979 0.0004664729354)
(0.0005 0.0007803370182 0.0004664729355)
(0.0005 0.0008013489456 0.0004664729354)
(0.0005 0.0008204506979 0.0004664729355)
(0.0005 0.0008378159273 0.0004664729355)
(0.0005 0.0008536024994 0.0004664729354)
(0.0005 0.0008679539286 0.0004664729354)
(0.0005 0.0008810006824 0.0004664729355)
(0.0005 0.0008928613677 0.0004664729355)
(0.0005 0.0009036438089 0.0004664729354)
(0.0005 0.0009134460281 0.0004664729354)
(0.0005 0.0009223571365 0.0004664729355)
(0.0005 0.0009304581442 0.0004664729355)
(0.0005 0.0009378226966 0.0004664729355)
(0.0005 0.0009445177443 0.0004664729355)
(0.0005 0.0009506041512 0.0004664729354)
(0.0005 0.0009561372484 0.0004664729354)
(0.0005 0.0009611673368 0.0004664729354)
(0.0005 0.0009657401444 0.0004664729354)
(0.0005 0.0009698972422 0.0004664729354)
(0.0005 0.0009736764221 0.0004664729354)
(0.0005 0.0009771120401 0.0004664729354)
(0.0005 0.0009802353292 0.0004664729354)
(0.0005 0.0009830746831 0.0004664729355)
(0.0005 0.0009856559138 0.0004664729355)
(0.0005 0.0009880024871 0.0004664729354)
(0.0005 0.0009901357356 0.0004664729354)
(0.0005 0.0009920750524 0.0004664729355)
(0.0005 0.0009938380677 0.0004664729354)
(0.0005 0.0009954408089 0.0004664729354)
(0.0005 0.0009968978463 0.0004664729354)
(0.0005 0.0009982224258 0.0004664729354)
(0.0005 0.0009994265889 0.0004664729355)
(0.0005 4.597582821e-05 0.0005160179614)
(0.0005 0.0001337478639 0.0005160179614)
(0.0005 0.0002135406236 0.0005160179614)
(0.0005 0.0002860794961 0.0005160179614)
(0.0005 0.0003520239256 0.0005160179614)
(0.0005 0.0004119734069 0.0005160179614)
(0.0005 0.0004664729354 0.0005160179614)
(0.0005 0.0005160179614 0.0005160179614)
(0.0005 0.000561058894 0.0005160179614)
(0.0005 0.0006020051965 0.0005160179614)
(0.0005 0.0006392291077 0.0005160179614)
(0.0005 0.0006730690271 0.0005160179614)
(0.0005 0.0007038325901 0.0005160179614)
(0.0005 0.0007317994657 0.0005160179614)
(0.0005 0.0007572238979 0.0005160179614)
(0.0005 0.0007803370181 0.0005160179614)
(0.0005 0.0008013489457 0.0005160179614)
(0.0005 0.0008204506979 0.0005160179614)
(0.0005 0.0008378159273 0.0005160179614)
(0.0005 0.0008536024994 0.0005160179614)
(0.0005 0.0008679539286 0.0005160179614)
(0.0005 0.0008810006824 0.0005160179614)
(0.0005 0.0008928613677 0.0005160179614)
(0.0005 0.0009036438089 0.0005160179614)
(0.0005 0.0009134460281 0.0005160179614)
(0.0005 0.0009223571365 0.0005160179614)
(0.0005 0.0009304581442 0.0005160179614)
(0.0005 0.0009378226966 0.0005160179614)
(0.0005 0.0009445177443 0.0005160179614)
(0.0005 0.0009506041512 0.0005160179614)
(0.0005 0.0009561372484 0.0005160179614)
(0.0005 0.0009611673368 0.0005160179614)
(0.0005 0.0009657401444 0.0005160179614)
(0.0005 0.0009698972422 0.0005160179614)
(0.0005 0.0009736764221 0.0005160179614)
(0.0005 0.0009771120402 0.0005160179614)
(0.0005 0.0009802353292 0.0005160179614)
(0.0005 0.0009830746831 0.0005160179614)
(0.0005 0.0009856559137 0.0005160179614)
(0.0005 0.0009880024871 0.0005160179614)
(0.0005 0.0009901357356 0.0005160179614)
(0.0005 0.0009920750524 0.0005160179614)
(0.0005 0.0009938380677 0.0005160179614)
(0.0005 0.0009954408089 0.0005160179614)
(0.0005 0.0009968978464 0.0005160179614)
(0.0005 0.0009982224258 0.0005160179614)
(0.0005 0.0009994265889 0.0005160179614)
(0.0005 4.597582821e-05 0.000561058894)
(0.0005 0.0001337478639 0.000561058894)
(0.0005 0.0002135406236 0.000561058894)
(0.0005 0.0002860794961 0.0005610588941)
(0.0005 0.0003520239255 0.000561058894)
(0.0005 0.0004119734069 0.000561058894)
(0.0005 0.0004664729354 0.000561058894)
(0.0005 0.0005160179614 0.000561058894)
(0.0005 0.000561058894 0.000561058894)
(0.0005 0.0006020051965 0.000561058894)
(0.0005 0.0006392291077 0.000561058894)
(0.0005 0.0006730690271 0.000561058894)
(0.0005 0.0007038325901 0.000561058894)
(0.0005 0.0007317994656 0.0005610588941)
(0.0005 0.0007572238979 0.000561058894)
(0.0005 0.0007803370181 0.000561058894)
(0.0005 0.0008013489457 0.000561058894)
(0.0005 0.0008204506979 0.000561058894)
(0.0005 0.0008378159272 0.000561058894)
(0.0005 0.0008536024994 0.0005610588941)
(0.0005 0.0008679539286 0.000561058894)
(0.0005 0.0008810006824 0.0005610588941)
(0.0005 0.0008928613677 0.000561058894)
(0.0005 0.0009036438089 0.0005610588941)
(0.0005 0.0009134460281 0.0005610588941)
(0.0005 0.0009223571365 0.000561058894)
(0.0005 0.0009304581442 0.000561058894)
(0.0005 0.0009378226966 0.000561058894)
(0.0005 0.0009445177442 0.0005610588941)
(0.0005 0.0009506041512 0.000561058894)
(0.0005 0.0009561372484 0.000561058894)
(0.0005 0.0009611673368 0.000561058894)
(0.0005 0.0009657401444 0.000561058894)
(0.0005 0.0009698972422 0.000561058894)
(0.0005 0.0009736764221 0.000561058894)
(0.0005 0.0009771120401 0.000561058894)
(0.0005 0.0009802353292 0.0005610588941)
(0.0005 0.0009830746831 0.000561058894)
(0.0005 0.0009856559137 0.000561058894)
(0.0005 0.0009880024871 0.000561058894)
(0.0005 0.0009901357356 0.000561058894)
(0.0005 0.0009920750524 0.000561058894)
(0.0005 0.0009938380677 0.000561058894)
(0.0005 0.0009954408089 0.000561058894)
(0.0005 0.0009968978463 0.000561058894)
(0.0005 0.0009982224258 0.000561058894)
(0.0005 0.0009994265889 0.000561058894)
(0.0005 4.597582821e-05 0.0006020051965)
(0.0005 0.0001337478639 0.0006020051965)
(0.0005 0.0002135406235 0.0006020051964)
(0.0005 0.0002860794961 0.0006020051965)
(0.0005 0.0003520239256 0.0006020051965)
(0.0005 0.0004119734069 0.0006020051965)
(0.0005 0.0004664729354 0.0006020051965)
(0.0005 0.0005160179614 0.0006020051964)
(0.0005 0.000561058894 0.0006020051964)
(0.0005 0.0006020051965 0.0006020051965)
(0.0005 0.0006392291077 0.0006020051965)
(0.0005 0.0006730690271 0.0006020051965)
(0.0005 0.0007038325901 0.0006020051965)
(0.0005 0.0007317994656 0.0006020051964)
(0.0005 0.0007572238979 0.0006020051964)
(0.0005 0.0007803370182 0.0006020051965)
(0.0005 0.0008013489456 0.0006020051964)
(0.0005 0.0008204506979 0.0006020051965)
(0.0005 0.0008378159272 0.0006020051965)
(0.0005 0.0008536024994 0.0006020051965)
(0.0005 0.0008679539286 0.0006020051965)
(0.0005 0.0008810006824 0.0006020051965)
(0.0005 0.0008928613677 0.0006020051965)
(0.0005 0.0009036438089 0.0006020051964)
(0.0005 0.0009134460282 0.0006020051965)
(0.0005 0.0009223571365 0.0006020051965)
(0.0005 0.0009304581442 0.0006020051964)
(0.0005 0.0009378226966 0.0006020051965)
(0.0005 0.0009445177442 0.0006020051965)
(0.0005 0.0009506041512 0.0006020051965)
(0.0005 0.0009561372484 0.0006020051964)
(0.0005 0.0009611673368 0.0006020051965)
(0.0005 0.0009657401444 0.0006020051965)
(0.0005 0.0009698972422 0.0006020051965)
(0.0005 0.0009736764221 0.0006020051965)
(0.0005 0.0009771120402 0.0006020051965)
(0.0005 0.0009802353292 0.0006020051965)
(0.0005 0.0009830746831 0.0006020051965)
(0.0005 0.0009856559137 0.0006020051965)
(0.0005 0.0009880024871 0.0006020051965)
(0.0005 0.0009901357356 0.0006020051965)
(0.0005 0.0009920750524 0.0006020051965)
(0.0005 0.0009938380677 0.0006020051964)
(0.0005 0.0009954408089 0.0006020051965)
(0.0005 0.0009968978463 0.0006020051965)
(0.0005 0.0009982224258 0.0006020051965)
(0.0005 0.0009994265889 0.0006020051965)
(0.0005 4.597582821e-05 0.0006392291077)
(0.0005 0.0001337478639 0.0006392291077)
(0.0005 0.0002135406236 0.0006392291078)
(0.0005 0.000286079496 0.0006392291077)
(0.0005 0.0003520239256 0.0006392291077)
(0.0005 0.0004119734069 0.0006392291078)
(0.0005 0.0004664729355 0.0006392291078)
(0.0005 0.0005160179614 0.0006392291077)
(0.0005 0.000561058894 0.0006392291077)
(0.0005 0.0006020051965 0.0006392291077)
(0.0005 0.0006392291077 0.0006392291078)
(0.0005 0.0006730690271 0.0006392291077)
(0.0005 0.0007038325901 0.0006392291077)
(0.0005 0.0007317994656 0.0006392291077)
(0.0005 0.0007572238979 0.0006392291077)
(0.0005 0.0007803370181 0.0006392291077)
(0.0005 0.0008013489457 0.0006392291077)
(0.0005 0.0008204506979 0.0006392291078)
(0.0005 0.0008378159272 0.0006392291078)
(0.0005 0.0008536024994 0.0006392291077)
(0.0005 0.0008679539286 0.0006392291078)
(0.0005 0.0008810006824 0.0006392291077)
(0.0005 0.0008928613677 0.0006392291077)
(0.0005 0.0009036438089 0.0006392291077)
(0.0005 0.0009134460282 0.0006392291077)
(0.0005 0.0009223571365 0.0006392291077)
(0.0005 0.0009304581442 0.0006392291077)
(0.0005 0.0009378226966 0.0006392291078)
(0.0005 0.0009445177442 0.0006392291077)
(0.0005 0.0009506041512 0.0006392291077)
(0.0005 0.0009561372484 0.0006392291077)
(0.0005 0.0009611673368 0.0006392291077)
(0.0005 0.0009657401444 0.0006392291078)
(0.0005 0.0009698972422 0.0006392291078)
(0.0005 0.0009736764221 0.0006392291077)
(0.0005 0.0009771120402 0.0006392291078)
(0.0005 0.0009802353292 0.0006392291077)
(0.0005 0.0009830746831 0.0006392291077)
(0.0005 0.0009856559138 0.0006392291077)
(0.0005 0.0009880024871 0.0006392291077)
(0.0005 0.0009901357356 0.0006392291078)
(0.0005 0.0009920750524 0.0006392291077)
(0.0005 0.0009938380677 0.0006392291077)
(0.0005 0.0009954408089 0.0006392291077)
(0.0005 0.0009968978463 0.0006392291078)
(0.0005 0.0009982224258 0.0006392291078)
(0.0005 0.0009994265889 0.0006392291077)
(0.0005 4.597582821e-05 0.0006730690271)
(0.0005 0.0001337478639 0.0006730690271)
(0.0005 0.0002135406236 0.0006730690271)
(0.0005 0.0002860794961 0.0006730690271)
(0.0005 0.0003520239256 0.0006730690271)
(0.0005 0.0004119734069 0.0006730690271)
(0.0005 0.0004664729354 0.0006730690271)
(0.0005 0.0005160179614 0.0006730690271)
(0.0005 0.000561058894 0.0006730690271)
(0.0005 0.0006020051965 0.0006730690271)
(0.0005 0.0006392291077 0.0006730690271)
(0.0005 0.0006730690271 0.0006730690271)
(0.0005 0.0007038325901 0.0006730690271)
(0.0005 0.0007317994656 0.0006730690271)
(0.0005 0.0007572238979 0.0006730690271)
(0.0005 0.0007803370181 0.0006730690271)
(0.0005 0.0008013489456 0.0006730690271)
(0.0005 0.0008204506979 0.0006730690271)
(0.0005 0.0008378159273 0.0006730690271)
(0.0005 0.0008536024994 0.0006730690271)
(0.0005 0.0008679539286 0.0006730690271)
(0.0005 0.0008810006824 0.0006730690271)
(0.0005 0.0008928613677 0.0006730690271)
(0.0005 0.0009036438089 0.0006730690271)
(0.0005 0.0009134460282 0.0006730690271)
(0.0005 0.0009223571365 0.0006730690271)
(0.0005 0.0009304581442 0.0006730690271)
(0.0005 0.0009378226966 0.0006730690271)
(0.0005 0.0009445177442 0.0006730690271)
(0.0005 0.0009506041512 0.0006730690271)
(0.0005 0.0009561372484 0.0006730690271)
(0.0005 0.0009611673368 0.0006730690271)
(0.0005 0.0009657401444 0.0006730690271)
(0.0005 0.0009698972422 0.0006730690271)
(0.0005 0.0009736764221 0.0006730690271)
(0.0005 0.0009771120401 0.0006730690271)
(0.0005 0.0009802353292 0.0006730690271)
(0.0005 0.0009830746831 0.0006730690271)
(0.0005 0.0009856559138 0.0006730690271)
(0.0005 0.0009880024871 0.0006730690271)
(0.0005 0.0009901357356 0.0006730690271)
(0.0005 0.0009920750524 0.0006730690271)
(0.0005 0.0009938380677 0.0006730690271)
(0.0005 0.0009954408089 0.0006730690271)
(0.0005 0.0009968978464 0.0006730690271)
(0.0005 0.0009982224258 0.0006730690271)
(0.0005 0.0009994265889 0.0006730690271)
(0.0005 4.597582821e-05 0.0007038325901)
(0.0005 0.0001337478639 0.0007038325902)
(0.0005 0.0002135406236 0.0007038325901)
(0.0005 0.000286079496 0.0007038325901)
(0.0005 0.0003520239255 0.0007038325901)
(0.0005 0.0004119734069 0.0007038325901)
(0.0005 0.0004664729354 0.0007038325901)
(0.0005 0.0005160179614 0.0007038325901)
(0.0005 0.000561058894 0.0007038325901)
(0.0005 0.0006020051965 0.0007038325901)
(0.0005 0.0006392291077 0.0007038325901)
(0.0005 0.0006730690271 0.0007038325901)
(0.0005 0.0007038325901 0.0007038325901)
(0.0005 0.0007317994656 0.0007038325901)
(0.0005 0.0007572238979 0.0007038325901)
(0.0005 0.0007803370181 0.0007038325901)
(0.0005 0.0008013489456 0.0007038325901)
(0.0005 0.0008204506979 0.0007038325901)
(0.0005 0.0008378159272 0.0007038325901)
(0.0005 0.0008536024994 0.0007038325901)
(0.0005 0.0008679539286 0.0007038325901)
(0.0005 0.0008810006824 0.0007038325901)
(0.0005 0.0008928613677 0.0007038325901)
(0.0005 0.0009036438089 0.0007038325901)
(0.0005 0.0009134460281 0.0007038325901)
(0.0005 0.0009223571366 0.0007038325901)
(0.0005 0.0009304581442 0.0007038325901)
(0.0005 0.0009378226966 0.0007038325901)
(0.0005 0.0009445177442 0.0007038325901)
(0.0005 0.0009506041512 0.0007038325901)
(0.0005 0.0009561372484 0.0007038325901)
(0.0005 0.0009611673368 0.0007038325901)
(0.0005 0.0009657401444 0.0007038325901)
(0.0005 0.0009698972422 0.0007038325902)
(0.0005 0.0009736764221 0.0007038325901)
(0.0005 0.0009771120402 0.0007038325901)
(0.0005 0.0009802353292 0.0007038325901)
(0.0005 0.0009830746831 0.0007038325901)
(0.0005 0.0009856559137 0.0007038325901)
(0.0005 0.0009880024871 0.0007038325901)
(0.0005 0.0009901357356 0.0007038325901)
(0.0005 0.0009920750524 0.0007038325902)
(0.0005 0.0009938380677 0.0007038325901)
(0.0005 0.0009954408089 0.0007038325901)
(0.0005 0.0009968978463 0.0007038325901)
(0.0005 0.0009982224258 0.0007038325901)
(0.0005 0.0009994265889 0.0007038325901)
(0.0005 4.597582821e-05 0.0007317994656)
(0.0005 0.0001337478639 0.0007317994656)
(0.0005 0.0002135406236 0.0007317994657)
(0.0005 0.0002860794961 0.0007317994656)
(0.0005 0.0003520239255 0.0007317994656)
(0.0005 0.0004119734069 0.0007317994656)
(0.0005 0.0004664729355 0.0007317994657)
(0.0005 0.0005160179614 0.0007317994656)
(0.0005 0.000561058894 0.0007317994656)
(0.0005 0.0006020051965 0.0007317994657)
(0.0005 0.0006392291077 0.0007317994656)
(0.0005 0.0006730690271 0.0007317994656)
(0.0005 0.0007038325901 0.0007317994656)
(0.0005 0.0007317994656 0.0007317994656)
(0.0005 0.0007572238979 0.0007317994656)
(0.0005 0.0007803370181 0.0007317994656)
(0.0005 0.0008013489457 0.0007317994657)
(0.0005 0.0008204506979 0.0007317994657)
(0.0005 0.0008378159272 0.0007317994657)
(0.0005 0.0008536024994 0.0007317994656)
(0.0005 0.0008679539286 0.0007317994656)
(0.0005 0.0008810006824 0.0007317994657)
(0.0005 0.0008928613677 0.0007317994656)
(0.0005 0.0009036438089 0.0007317994656)
(0.0005 0.0009134460282 0.0007317994656)
(0.0005 0.0009223571366 0.0007317994657)
(0.0005 0.0009304581442 0.0007317994656)
(0.0005 0.0009378226966 0.0007317994657)
(0.0005 0.0009445177442 0.0007317994656)
(0.0005 0.0009506041512 0.0007317994657)
(0.0005 0.0009561372484 0.0007317994657)
(0.0005 0.0009611673368 0.0007317994657)
(0.0005 0.0009657401444 0.0007317994656)
(0.0005 0.0009698972422 0.0007317994657)
(0.0005 0.0009736764221 0.0007317994656)
(0.0005 0.0009771120402 0.0007317994657)
(0.0005 0.0009802353293 0.0007317994656)
(0.0005 0.0009830746831 0.0007317994656)
(0.0005 0.0009856559137 0.0007317994656)
(0.0005 0.0009880024871 0.0007317994656)
(0.0005 0.0009901357356 0.0007317994656)
(0.0005 0.0009920750524 0.0007317994656)
(0.0005 0.0009938380677 0.0007317994656)
(0.0005 0.0009954408089 0.0007317994656)
(0.0005 0.0009968978463 0.0007317994656)
(0.0005 0.0009982224258 0.0007317994656)
(0.0005 0.0009994265889 0.0007317994656)
(0.0005 4.597582821e-05 0.0007572238979)
(0.0005 0.0001337478639 0.0007572238979)
(0.0005 0.0002135406236 0.0007572238979)
(0.0005 0.000286079496 0.0007572238979)
(0.0005 0.0003520239256 0.0007572238979)
(0.0005 0.0004119734069 0.0007572238979)
(0.0005 0.0004664729354 0.0007572238979)
(0.0005 0.0005160179614 0.0007572238979)
(0.0005 0.0005610588941 0.0007572238979)
(0.0005 0.0006020051965 0.0007572238979)
(0.0005 0.0006392291077 0.0007572238979)
(0.0005 0.0006730690271 0.0007572238979)
(0.0005 0.0007038325901 0.0007572238979)
(0.0005 0.0007317994656 0.0007572238979)
(0.0005 0.0007572238979 0.0007572238979)
(0.0005 0.0007803370181 0.0007572238979)
(0.0005 0.0008013489457 0.0007572238979)
(0.0005 0.0008204506979 0.0007572238979)
(0.0005 0.0008378159272 0.0007572238979)
(0.0005 0.0008536024994 0.0007572238979)
(0.0005 0.0008679539286 0.0007572238979)
(0.0005 0.0008810006824 0.0007572238979)
(0.0005 0.0008928613677 0.0007572238979)
(0.0005 0.0009036438089 0.0007572238979)
(0.0005 0.0009134460281 0.0007572238979)
(0.0005 0.0009223571365 0.0007572238979)
(0.0005 0.0009304581442 0.0007572238979)
(0.0005 0.0009378226966 0.0007572238979)
(0.0005 0.0009445177442 0.0007572238979)
(0.0005 0.0009506041512 0.0007572238979)
(0.0005 0.0009561372484 0.0007572238979)
(0.0005 0.0009611673368 0.0007572238979)
(0.0005 0.0009657401444 0.0007572238979)
(0.0005 0.0009698972422 0.0007572238979)
(0.0005 0.0009736764221 0.0007572238979)
(0.0005 0.0009771120401 0.0007572238979)
(0.0005 0.0009802353292 0.0007572238979)
(0.0005 0.0009830746831 0.0007572238979)
(0.0005 0.0009856559137 0.0007572238979)
(0.0005 0.0009880024871 0.0007572238979)
(0.0005 0.0009901357356 0.0007572238979)
(0.0005 0.0009920750524 0.0007572238979)
(0.0005 0.0009938380677 0.0007572238979)
(0.0005 0.0009954408089 0.0007572238979)
(0.0005 0.0009968978463 0.0007572238979)
(0.0005 0.0009982224258 0.0007572238979)
(0.0005 0.0009994265889 0.0007572238979)
(0.0005 4.597582821e-05 0.0007803370181)
(0.0005 0.0001337478639 0.0007803370182)
(0.0005 0.0002135406236 0.0007803370182)
(0.0005 0.000286079496 0.0007803370181)
(0.0005 0.0003520239255 0.0007803370181)
(0.0005 0.0004119734069 0.0007803370182)
(0.0005 0.0004664729354 0.0007803370181)
(0.0005 0.0005160179614 0.0007803370181)
(0.0005 0.000561058894 0.0007803370182)
(0.0005 0.0006020051965 0.0007803370182)
(0.0005 0.0006392291077 0.0007803370181)