/*--------------------------------*- C++ -*----------------------------------*\
  =========                 |
  \\      /  F ield         | OpenFOAM: The Open Source CFD Toolbox
   \\    /   O peration     | Website:  https://openfoam.org
    \\  /    A nd           | Version:  7
     \\/     M anipulation  |
\*---------------------------------------------------------------------------*/
FoamFile
{
    version     2.0;
    format      ascii;
    class       volScalarField;
    location    "constant";
    object      V;
}
// * * * * * * * * * * * * * * * * * * * * * * * * * * * * * * * * * * * * * //

dimensions      [0 3 0 0 0 0 0];

internalField   nonuniform List<scalar> 
2209
(
8.455107118e-12
7.686461012e-12
6.987691835e-12
6.352447127e-12
5.774951921e-12
5.249956302e-12
4.772687546e-12
4.33880686e-12
3.944369867e-12
3.585790793e-12
3.259809812e-12
2.963463462e-12
2.694057697e-12
2.449143357e-12
2.226493961e-12
2.024085423e-12
1.840077653e-12
1.672797867e-12
1.520725339e-12
1.382477578e-12
1.256797796e-12
1.142543449e-12
1.03867587e-12
9.442507874e-13
8.584098059e-13
7.8037255e-13
7.094295942e-13
6.449359897e-13
5.863054527e-13
5.330049487e-13
4.845499567e-13
4.40499964e-13
4.004545027e-13
3.640495546e-13
3.309541489e-13
3.008673922e-13
2.735158203e-13
2.486507499e-13
2.260461271e-13
2.054964858e-13
1.868149804e-13
1.698318037e-13
1.543925505e-13
1.403568658e-13
1.275971482e-13
1.159974008e-13
1.054521917e-13
7.686461012e-12
6.987691825e-12
6.352447119e-12
5.774951931e-12
5.249956289e-12
4.772687545e-12
4.338806858e-12
3.944369871e-12
3.585790786e-12
3.25980981e-12
2.963463464e-12
2.694057692e-12
2.44914336e-12
2.22649396e-12
2.024085418e-12
1.840077656e-12
1.672797866e-12
1.520725332e-12
1.38247758e-12
1.256797797e-12
1.14254345e-12
1.038675863e-12
9.442507902e-13
8.584098062e-13
7.803725504e-13
7.094295905e-13
6.449359944e-13
5.863054449e-13
5.330049567e-13
4.845499531e-13
4.404999604e-13
4.004545125e-13
3.640495477e-13
3.309541403e-13
3.008674079e-13
2.735158109e-13
2.486507456e-13
2.260461361e-13
2.05496479e-13
1.86814987e-13
1.698318003e-13
1.543925488e-13
1.40356864e-13
1.275971506e-13
1.159974074e-13
1.054521825e-13
9.586562878e-14
6.987691835e-12
6.352447119e-12
5.774951932e-12
5.249956305e-12
4.77268754e-12
4.338806862e-12
3.944369874e-12
3.585790795e-12
3.259809809e-12
2.963463466e-12
2.694057697e-12
2.449143358e-12
2.226493965e-12
2.02408542e-12
1.840077654e-12
1.672797871e-12
1.520725334e-12
1.382477576e-12
1.256797801e-12
1.142543453e-12
1.038675865e-12
9.442507849e-13
8.5840981e-13
7.803725518e-13
7.094295918e-13
6.449359919e-13
5.863054499e-13
5.330049503e-13
4.845499611e-13
4.404999577e-13
4.004545098e-13
3.640495571e-13
3.309541345e-13
3.008674005e-13
2.735158256e-13
2.486507374e-13
2.260461325e-13
2.054964876e-13
1.868149811e-13
1.698318065e-13
1.543925459e-13
1.403568626e-13
1.275971492e-13
1.159974098e-13
1.054521886e-13
9.58656205e-14
8.715057169e-14
6.352447127e-12
5.774951931e-12
5.249956305e-12
4.772687553e-12
4.338806857e-12
3.944369877e-12
3.585790797e-12
3.259809816e-12
2.963463464e-12
2.694057698e-12
2.449143362e-12
2.226493963e-12
2.024085424e-12
1.840077655e-12
1.672797868e-12
1.520725338e-12
1.382477577e-12
1.256797797e-12
1.142543456e-12
1.038675867e-12
9.442507869e-13
8.58409805e-13
7.80372555e-13
7.09429593e-13
6.44935993e-13
5.863054475e-13
5.330049548e-13
4.845499552e-13
4.404999649e-13
4.004545073e-13
3.640495546e-13
3.30954143e-13
3.008673952e-13
2.735158189e-13
2.486507507e-13
2.260461251e-13
2.054964842e-13
1.868149888e-13
1.698318011e-13
1.543925515e-13
1.4035686e-13
1.275971479e-13
1.159974085e-13
1.054521908e-13
9.586562609e-14
8.715056415e-14
7.92277925e-14
5.774951921e-12
5.249956289e-12
4.77268754e-12
4.338806857e-12
3.944369861e-12
3.58579079e-12
3.259809808e-12
2.963463462e-12
2.694057689e-12
2.449143356e-12
2.226493961e-12
2.024085417e-12
1.840077654e-12
1.672797865e-12
1.520725332e-12
1.382477577e-12
1.256797795e-12
1.14254345e-12
1.038675867e-12
9.442507861e-13
8.584098044e-13
7.803725483e-13
7.09429594e-13
6.449359922e-13
5.863054469e-13
5.330049512e-13
4.845499579e-13
4.404999583e-13
4.004545127e-13
3.640495513e-13
3.309541398e-13
3.008674021e-13
2.735158132e-13
2.486507439e-13
2.260461365e-13
2.054964769e-13
1.868149853e-13
1.698318076e-13
1.543925461e-13
1.403568647e-13
1.275971451e-13
1.15997407e-13
1.054521893e-13
9.586562776e-14
8.715056898e-14
7.922778542e-14
7.202526575e-14
5.249956302e-12
4.772687545e-12
4.338806862e-12
3.944369877e-12
3.58579079e-12
3.259809815e-12
2.963463468e-12
2.694057698e-12
2.449143358e-12
2.226493965e-12
2.024085423e-12
1.840077655e-12
1.672797871e-12
1.520725335e-12
1.382477577e-12
1.2567978e-12
1.142543452e-12
1.038675865e-12
9.442507902e-13
8.584098072e-13
7.80372551e-13
7.094295907e-13
6.449359957e-13
5.863054486e-13
5.330049527e-13
4.845499565e-13
4.404999626e-13
4.004545083e-13
3.640495577e-13
3.309541381e-13
3.008674004e-13
2.735158206e-13
2.486507398e-13
2.260461312e-13
2.054964881e-13
1.868149793e-13
1.698318051e-13
1.543925527e-13
1.403568604e-13
1.2759715e-13
1.159974049e-13
1.054521883e-13
9.58656268e-14
8.715057086e-14
7.922779013e-14
7.202525961e-14
6.547751444e-14
4.772687546e-12
4.338806858e-12
3.944369874e-12
3.585790797e-12
3.259809808e-12
2.963463468e-12
2.694057698e-12
2.449143361e-12
2.226493962e-12
2.024085422e-12
1.840077657e-12
1.672797868e-12
1.520725337e-12
1.382477577e-12
1.256797797e-12
1.142543454e-12
1.038675865e-12
9.442507864e-13
8.584098091e-13
7.803725519e-13
7.094295917e-13
6.449359915e-13
5.863054506e-13
5.330049532e-13
4.84549957e-13
4.404999604e-13
4.004545113e-13
3.640495529e-13
3.309541433e-13
3.008673983e-13
2.735158185e-13
2.48650746e-13
2.26046127e-13
2.054964829e-13
1.868149892e-13
1.698317994e-13
1.543925501e-13
1.403568661e-13
1.275971458e-13
1.15997409e-13
1.054521862e-13
9.586562575e-14
8.715056981e-14
7.922779168e-14
7.202526375e-14
6.547750872e-14
5.952501312e-14
4.33880686e-12
3.944369871e-12
3.585790795e-12
3.259809816e-12
2.963463462e-12
2.694057698e-12
2.449143361e-12
2.226493965e-12
2.02408542e-12
1.840077656e-12
1.67279787e-12
1.520725335e-12
1.382477579e-12
1.256797797e-12
1.142543452e-12
1.038675867e-12
9.442507864e-13
8.584098058e-13
7.803725537e-13
7.094295926e-13
6.449359924e-13
5.863054468e-13
5.330049551e-13
4.845499574e-13
4.404999609e-13
4.004545095e-13
3.640495558e-13
3.30954139e-13
3.00867403e-13
2.735158166e-13
2.486507441e-13
2.260461327e-13
2.054964791e-13
1.868149845e-13
1.698318083e-13
1.543925449e-13
1.403568637e-13
1.27597151e-13
1.159974053e-13
1.0545219e-13
9.586562386e-14
8.715056886e-14
7.922779073e-14
7.202526516e-14
6.54775125e-14
5.952500793e-14
5.411364829e-14
3.944369867e-12
3.585790786e-12
3.259809809e-12
2.963463464e-12
2.694057689e-12
2.449143358e-12
2.226493962e-12
2.02408542e-12
1.840077652e-12
1.672797867e-12
1.520725334e-12
1.382477575e-12
1.256797797e-12
1.14254345e-12
1.038675864e-12
9.442507871e-13
8.584098045e-13
7.803725496e-13
7.094295933e-13
6.449359923e-13
5.863054468e-13
5.330049508e-13
4.845499584e-13
4.404999606e-13
4.004545093e-13
3.640495535e-13
3.309541411e-13
3.008673987e-13
2.735158205e-13
2.48650742e-13
2.260461306e-13
2.05496484e-13
1.868149807e-13
1.698318038e-13
1.543925528e-13
1.403568588e-13
1.275971486e-13
1.159974098e-13
1.054521864e-13
9.586562715e-14
8.715056702e-14
7.922778976e-14
7.20252642e-14
6.547751369e-14
5.952501127e-14
5.411364349e-14
4.919422565e-14
3.585790793e-12
3.25980981e-12
2.963463466e-12
2.694057698e-12
2.449143356e-12
2.226493965e-12
2.024085422e-12
1.840077656e-12
1.672797867e-12
1.520725335e-12
1.382477578e-12
1.256797797e-12
1.142543453e-12
1.038675865e-12
9.442507863e-13
8.584098075e-13
7.803725505e-13
7.094295914e-13
6.449359946e-13
5.863054482e-13
5.330049522e-13
4.845499559e-13
4.404999627e-13
4.004545101e-13
3.640495543e-13
3.309541399e-13
3.008674014e-13
2.735158173e-13
2.486507462e-13
2.260461294e-13
2.054964826e-13
1.868149856e-13
1.698318009e-13
1.543925491e-13
1.403568664e-13
1.275971445e-13
1.15997408e-13
1.054521908e-13
9.586562414e-14
8.715057024e-14
7.922778829e-14
7.20252635e-14
6.547751298e-14
5.952501251e-14
5.411364667e-14
4.919422141e-14
4.472202337e-14
3.259809812e-12
2.963463464e-12
2.694057697e-12
2.449143362e-12
2.226493961e-12
2.024085423e-12
1.840077657e-12
1.67279787e-12
1.520725334e-12
1.382477578e-12
1.256797798e-12
1.142543452e-12
1.038675867e-12
9.442507865e-13
8.584098059e-13
7.803725525e-13
7.094295915e-13
6.449359923e-13
5.863054498e-13
5.330049531e-13
4.845499567e-13
4.4049996e-13
4.004545117e-13
3.640495548e-13
3.309541404e-13
3.008674e-13
2.735158195e-13
2.486507431e-13
2.26046133e-13
2.054964813e-13
1.868149843e-13
1.698318052e-13
1.543925463e-13
1.403568628e-13
1.275971513e-13
1.159974041e-13
1.054521891e-13
9.586562807e-14
8.715056743e-14
7.922779115e-14
7.20252621e-14
6.547751229e-14
5.952501182e-14
5.411364775e-14
4.919422426e-14
4.472201948e-14
4.065638489e-14
2.963463462e-12
2.694057692e-12
2.449143358e-12
2.226493963e-12
2.024085417e-12
1.840077655e-12
1.672797868e-12
1.520725335e-12
1.382477575e-12
1.256797797e-12
1.142543452e-12
1.038675864e-12
9.442507871e-13
8.58409805e-13
7.8037255e-13
7.094295924e-13
6.449359916e-13
5.863054469e-13
5.330049538e-13
4.845499568e-13
4.404999601e-13
4.004545086e-13
3.640495556e-13
3.309541403e-13
3.008674e-13
2.735158179e-13
2.486507447e-13
2.260461298e-13
2.054964843e-13
1.868149828e-13
1.698318037e-13
1.5439255e-13
1.403568601e-13
1.275971479e-13
1.159974101e-13
1.054521854e-13
9.586562635e-14
8.715057087e-14
7.922778848e-14
7.20252646e-14
6.547751093e-14
5.952501111e-14
5.411364705e-14
4.919422517e-14
4.472202201e-14
4.06563813e-14
3.696034986e-14
2.694057697e-12
2.44914336e-12
2.226493965e-12
2.024085424e-12
1.840077654e-12
1.672797871e-12
1.520725337e-12
1.382477579e-12
1.256797797e-12
1.142543453e-12
1.038675867e-12
9.442507871e-13
8.584098078e-13
7.803725512e-13
7.09429592e-13
6.44935994e-13
5.863054478e-13
5.330049525e-13
4.845499587e-13
4.404999614e-13
4.004545098e-13
3.640495539e-13
3.30954142e-13
3.008674008e-13
2.735158186e-13
2.486507439e-13
2.260461319e-13
2.05496482e-13
1.86814986e-13
1.698318028e-13
1.54392549e-13
1.403568638e-13
1.275971457e-13
1.159974074e-13
1.054521912e-13
9.586562327e-14
8.715056954e-14
7.922779183e-14
7.202526237e-14
6.547751337e-14
5.952501003e-14
5.411364654e-14
4.919422466e-14
4.472202295e-14
4.06563837e-14
3.696034669e-14
3.36003181e-14
2.449143357e-12
2.22649396e-12
2.02408542e-12
1.840077655e-12
1.672797865e-12
1.520725335e-12
1.382477577e-12
1.256797797e-12
1.14254345e-12
1.038675865e-12
9.442507865e-13
8.58409805e-13
7.803725512e-13
7.094295908e-13
6.449359916e-13
5.863054481e-13
5.330049516e-13
4.84549956e-13
4.404999617e-13
4.004545097e-13
3.640495538e-13
3.309541393e-13
3.008674013e-13
2.735158184e-13
2.486507438e-13
2.260461305e-13
2.054964832e-13
1.868149833e-13
1.698318052e-13
1.543925477e-13
1.403568625e-13
1.275971487e-13
1.15997405e-13
1.054521883e-13
9.586562817e-14
8.715056646e-14
7.922779036e-14
7.202526517e-14
6.547751113e-14
5.952501206e-14
5.411364539e-14
4.919422405e-14
4.472202234e-14
4.065638443e-14
3.696034876e-14
3.360031512e-14
3.054574368e-14
2.226493961e-12
2.024085418e-12
1.840077654e-12
1.672797868e-12
1.520725332e-12
1.382477577e-12
1.256797797e-12
1.142543452e-12
1.038675864e-12
9.442507863e-13
8.584098059e-13
7.8037255e-13
7.09429592e-13
6.449359916e-13
5.863054469e-13
5.330049529e-13
4.84549956e-13
4.4049996e-13
4.004545107e-13
3.640495543e-13
3.309541398e-13
3.008673994e-13
2.735158194e-13
2.48650744e-13
2.260461307e-13
2.054964822e-13
1.868149847e-13
1.69831803e-13
1.543925501e-13
1.403568616e-13
1.275971478e-13
1.159974079e-13
1.054521864e-13
9.586562575e-14
8.715057107e-14
7.92277877e-14
7.202526396e-14
6.547751379e-14
5.952501012e-14
5.411364732e-14
4.919422308e-14
4.472202186e-14
4.065638395e-14
3.696034949e-14
3.360031705e-14
3.054574102e-14
2.776885789e-14
2.024085423e-12
1.840077656e-12
1.672797871e-12
1.520725338e-12
1.382477577e-12
1.2567978e-12
1.142543454e-12
1.038675867e-12
9.442507871e-13
8.584098075e-13
7.803725525e-13
7.094295924e-13
6.44935994e-13
5.863054481e-13
5.330049529e-13
4.845499581e-13
4.404999609e-13
4.004545099e-13
3.640495559e-13
3.309541409e-13
3.008674004e-13
2.735158182e-13
2.486507454e-13
2.260461314e-13
2.054964829e-13
1.868149842e-13
1.698318046e-13
1.543925485e-13
1.403568641e-13
1.275971471e-13
1.159974073e-13
1.054521892e-13
9.586562419e-14
8.715056904e-14
7.922779204e-14
7.202526169e-14
6.547751283e-14
5.952501266e-14
5.411364567e-14
4.919422494e-14
4.472202107e-14
4.065638359e-14
3.696034912e-14
3.360031778e-14
3.054574284e-14
2.776885553e-14
2.524441632e-14
1.840077653e-12
1.672797866e-12
1.520725334e-12
1.382477577e-12
1.256797795e-12
1.142543452e-12
1.038675865e-12
9.442507864e-13
8.584098045e-13
7.803725505e-13
7.094295915e-13
6.449359916e-13
5.863054478e-13
5.330049516e-13
4.84549956e-13
4.404999609e-13
4.00454509e-13
3.640495537e-13
3.30954141e-13
3.008674002e-13
2.73515818e-13
2.486507432e-13
2.260461317e-13
2.054964826e-13
1.86814984e-13
1.698318035e-13
1.543925493e-13
1.403568619e-13
1.275971489e-13
1.159974062e-13
1.054521882e-13
9.586562637e-14
8.715056725e-14
7.922778986e-14
7.202526533e-14
6.547751048e-14
5.952501153e-14
5.411364775e-14
4.919422323e-14
4.472202257e-14
4.06563827e-14
3.696034864e-14
3.360031731e-14
3.054574337e-14
2.776885706e-14
2.524441406e-14
2.294946933e-14
1.672797867e-12
1.520725332e-12
1.382477576e-12
1.256797797e-12
1.14254345e-12
1.038675865e-12
9.442507864e-13
8.584098058e-13
7.803725496e-13
7.094295914e-13
6.449359923e-13
5.863054469e-13
5.330049525e-13
4.84549956e-13
4.4049996e-13
4.004545099e-13
3.640495537e-13
3.309541397e-13
3.008674009e-13
2.735158183e-13
2.486507436e-13
2.260461302e-13
2.054964833e-13
1.868149842e-13
1.698318036e-13
1.543925486e-13
1.40356863e-13
1.275971472e-13
1.15997408e-13
1.054521875e-13
9.586562564e-14
8.715056943e-14
7.92277884e-14
7.202526351e-14
6.547751393e-14
5.952500953e-14
5.411364684e-14
4.919422523e-14
4.472202112e-14
4.065638416e-14
3.696034791e-14
3.360031694e-14
3.054574301e-14
2.776885761e-14
2.524441551e-14
2.294946732e-14
2.086315393e-14
1.520725339e-12
1.38247758e-12
1.256797801e-12
1.142543456e-12
1.038675867e-12
9.442507902e-13
8.584098091e-13
7.803725537e-13
7.094295933e-13
6.449359946e-13
5.863054498e-13
5.330049538e-13
4.845499587e-13
4.404999617e-13
4.004545107e-13
3.640495559e-13
3.30954141e-13
3.008674009e-13
2.7351582e-13
2.486507449e-13
2.260461314e-13
2.054964828e-13
1.868149856e-13
1.698318045e-13
1.543925494e-13
1.403568629e-13
1.275971487e-13
1.15997407e-13
1.054521895e-13
9.586562535e-14
8.71505691e-14
7.922779069e-14
7.202526246e-14
6.547751253e-14
5.95250129e-14
5.411364523e-14
4.919422459e-14
4.472202311e-14
4.065638299e-14
3.696034938e-14
3.360031641e-14
3.054574279e-14
2.776885739e-14
2.524441611e-14
2.294946874e-14
2.086315219e-14
1.896650365e-14
1.382477578e-12
1.256797797e-12
1.142543453e-12
1.038675867e-12
9.442507861e-13
8.584098072e-13
7.803725519e-13
7.094295926e-13
6.449359923e-13
5.863054482e-13
5.330049531e-13
4.845499568e-13
4.404999614e-13
4.004545097e-13
3.640495543e-13
3.309541409e-13
3.008674002e-13
2.735158183e-13
2.486507449e-13
2.260461312e-13
2.054964826e-13
1.868149839e-13
1.698318047e-13
1.543925491e-13
1.403568627e-13
1.275971478e-13
1.159974076e-13
1.054521879e-13
9.586562662e-14
8.715056829e-14
7.92277899e-14
7.202526409e-14
6.547751117e-14
5.952501125e-14
5.411364796e-14
4.919422282e-14
4.472202225e-14
4.065638455e-14
3.696034808e-14
3.360031753e-14
3.054574212e-14
2.776885702e-14
2.524441574e-14
2.294946913e-14
2.086315335e-14
1.896650195e-14
1.7242276e-14
1.256797796e-12
1.14254345e-12
1.038675865e-12
9.442507869e-13
8.584098044e-13
7.80372551e-13
7.094295917e-13
6.449359924e-13
5.863054468e-13
5.330049522e-13
4.845499567e-13
4.404999601e-13
4.004545098e-13
3.640495538e-13
3.309541398e-13
3.008674004e-13
2.73515818e-13
2.486507436e-13
2.260461314e-13
2.054964826e-13
1.868149839e-13
1.698318033e-13
1.543925495e-13
1.403568627e-13
1.275971478e-13
1.159974069e-13
1.054521886e-13
9.586562526e-14
8.715056954e-14
7.922778925e-14
7.202526345e-14
6.547751272e-14
5.952501008e-14
5.411364652e-14
4.919422535e-14
4.472202068e-14
4.065638381e-14
3.696034954e-14
3.360031639e-14
3.054574317e-14
2.776885643e-14
2.524441544e-14
2.294946883e-14
2.086315373e-14
1.896650302e-14
1.724227448e-14
1.567479634e-14
1.142543449e-12
1.038675863e-12
9.442507849e-13
8.58409805e-13
7.803725483e-13
7.094295907e-13
6.449359915e-13
5.863054468e-13
5.330049508e-13
4.845499559e-13
4.4049996e-13
4.004545086e-13
3.640495539e-13
3.309541393e-13
3.008673994e-13
2.735158182e-13
2.486507432e-13
2.260461302e-13
2.054964828e-13
1.868149839e-13
1.698318033e-13
1.543925483e-13
1.40356863e-13
1.275971477e-13
1.159974069e-13
1.05452188e-13
9.586562587e-14
8.715056829e-14
7.922779038e-14
7.202526285e-14
6.547751213e-14
5.952501148e-14
5.411364545e-14
4.919422404e-14
4.472202298e-14
4.065638238e-14
3.696034886e-14
3.360031771e-14
3.054574213e-14
2.776885739e-14
2.52444149e-14
2.294946855e-14
2.086315345e-14
1.896650336e-14
1.724227544e-14
1.567479495e-14
1.424981484e-14
1.03867587e-12
9.442507902e-13
8.5840981e-13
7.80372555e-13
7.09429594e-13
6.449359957e-13
5.863054506e-13
5.330049551e-13
4.845499584e-13
4.404999627e-13
4.004545117e-13
3.640495556e-13
3.30954142e-13
3.008674013e-13
2.735158194e-13
2.486507454e-13
2.260461317e-13
2.054964833e-13
1.868149856e-13
1.698318047e-13
1.543925495e-13
1.40356863e-13
1.27597149e-13
1.159974077e-13
1.054521888e-13
9.586562604e-14
8.715056953e-14
7.922778987e-14
7.202526444e-14
6.54775121e-14
5.952501141e-14
5.411364715e-14
4.919422345e-14
4.472202214e-14
4.065638479e-14
3.696034786e-14
3.360031736e-14
3.054574357e-14
2.776885666e-14
2.524441597e-14
2.294946824e-14
2.086315336e-14
1.896650326e-14
1.724227589e-14
1.567479596e-14
1.424981369e-14
1.295437721e-14
9.442507874e-13
8.584098062e-13
7.803725518e-13
7.09429593e-13
6.449359922e-13
5.863054486e-13
5.330049532e-13
4.845499574e-13
4.404999606e-13
4.004545101e-13
3.640495548e-13
3.309541403e-13
3.008674008e-13
2.735158184e-13
2.48650744e-13
2.260461314e-13
2.054964826e-13
1.868149842e-13
1.698318045e-13
1.543925491e-13
1.403568627e-13
1.275971477e-13
1.159974077e-13
1.054521885e-13
9.58656258e-14
8.715056881e-14
7.92277902e-14
7.202526326e-14
6.54775129e-14
5.952501079e-14
5.411364655e-14
4.919422451e-14
4.472202116e-14
4.065638362e-14
3.696034968e-14
3.360031611e-14
3.054574295e-14
2.776885769e-14
2.524441506e-14
2.294946898e-14
2.086315287e-14
1.896650299e-14
1.724227563e-14
1.567479621e-14
1.424981446e-14
1.295437603e-14
1.177670651e-14
8.584098059e-13
7.803725504e-13
7.094295918e-13
6.44935993e-13
5.863054469e-13
5.330049527e-13
4.84549957e-13
4.404999609e-13
4.004545093e-13
3.640495543e-13
3.309541404e-13
3.008674e-13
2.735158186e-13
2.486507438e-13
2.260461307e-13
2.054964829e-13
1.86814984e-13
1.698318036e-13
1.543925494e-13
1.403568627e-13
1.275971478e-13
1.159974069e-13
1.054521888e-13
9.58656258e-14
8.715056882e-14
7.922778975e-14
7.202526375e-14
6.547751199e-14
5.952501167e-14
5.411364612e-14
4.919422409e-14
4.472202224e-14
4.065638283e-14
3.696034871e-14
3.360031786e-14
3.054574189e-14
2.77688572e-14
2.524441606e-14
2.294946821e-14
2.08631536e-14
1.896650259e-14
1.724227542e-14
1.567479601e-14
1.424981472e-14
1.295437677e-14
1.177670547e-14
1.070609682e-14
7.8037255e-13
7.094295905e-13
6.449359919e-13
5.863054475e-13
5.330049512e-13
4.845499565e-13
4.404999604e-13
4.004545095e-13
3.640495535e-13
3.309541399e-13
3.008674e-13
2.735158179e-13
2.486507439e-13
2.260461305e-13
2.054964822e-13
1.868149842e-13
1.698318035e-13
1.543925486e-13
1.403568629e-13
1.275971478e-13
1.159974069e-13
1.05452188e-13
9.586562604e-14
8.715056881e-14
7.922778975e-14
7.202526334e-14
6.547751243e-14
5.952501084e-14
5.411364691e-14
4.919422369e-14
4.472202185e-14
4.065638381e-14
3.696034799e-14
3.360031697e-14
3.054574347e-14
2.776885624e-14
2.524441561e-14
2.294946912e-14
2.08631529e-14
1.896650325e-14
1.724227507e-14
1.567479582e-14
1.424981454e-14
1.295437701e-14
1.177670614e-14
1.070609587e-14
9.732815279e-15
7.094295942e-13
6.449359944e-13
5.863054499e-13
5.330049548e-13
4.845499579e-13
4.404999626e-13
4.004545113e-13
3.640495558e-13
3.309541411e-13
3.008674014e-13
2.735158195e-13
2.486507447e-13
2.260461319e-13
2.054964832e-13
1.868149847e-13
1.698318046e-13
1.543925493e-13
1.40356863e-13
1.275971487e-13
1.159974076e-13
1.054521886e-13
9.586562587e-14
8.715056953e-14
7.92277902e-14
7.202526375e-14
6.547751243e-14
5.952501158e-14
5.411364647e-14
4.91942247e-14
4.472202175e-14
4.065638369e-14
3.696034909e-14
3.360031651e-14
3.054574285e-14
2.776885783e-14
2.524441488e-14
2.294946884e-14
2.086315385e-14
1.896650272e-14
1.724227576e-14
1.567479559e-14
1.424981445e-14
1.295437691e-14
1.177670643e-14
1.070609654e-14
9.732814476e-15
8.848013932e-15
6.449359897e-13
5.863054449e-13
5.330049503e-13
4.845499552e-13
4.404999583e-13
4.004545083e-13
3.640495529e-13
3.30954139e-13
3.008673987e-13
2.735158173e-13
2.486507431e-13
2.260461298e-13
2.05496482e-13
1.868149833e-13
1.69831803e-13
1.543925485e-13
1.403568619e-13
1.275971472e-13
1.15997407e-13
1.054521879e-13
9.586562526e-14
8.715056829e-14
7.922778987e-14
7.202526326e-14
6.547751199e-14
5.952501084e-14
5.411364647e-14
4.919422368e-14
4.47220221e-14
4.065638309e-14
3.696034852e-14
3.360031709e-14
3.054574205e-14
2.776885692e-14
2.524441602e-14
2.294946789e-14
2.086315333e-14
1.896650335e-14
1.724227507e-14
1.567479603e-14
1.424981406e-14
1.295437667e-14
1.177670619e-14
1.070609667e-14
9.732814962e-15
8.848013091e-15
8.043648966e-15
5.863054527e-13
5.330049567e-13
4.845499611e-13
4.404999649e-13
4.004545127e-13
3.640495577e-13
3.309541433e-13
3.00867403e-13
2.735158205e-13
2.486507462e-13
2.26046133e-13
2.054964843e-13
1.86814986e-13
1.698318052e-13
1.543925501e-13
1.403568641e-13
1.275971489e-13
1.15997408e-13
1.054521895e-13
9.586562662e-14
8.715056954e-14
7.922779038e-14
7.202526444e-14
6.54775129e-14
5.952501167e-14
5.411364691e-14
4.91942247e-14
4.47220221e-14
4.065638425e-14
3.696034874e-14
3.360031727e-14
3.05457432e-14
2.776885676e-14
2.52444157e-14
2.29494694e-14
2.08631529e-14
1.896650327e-14
1.724227599e-14
1.567479572e-14
1.424981475e-14
1.295437659e-14
1.177670622e-14
1.070609668e-14
9.732815278e-15
8.848013715e-15
8.043648368e-15
7.312408245e-15
5.330049487e-13
4.845499531e-13
4.404999577e-13
4.004545073e-13
3.640495513e-13
3.309541381e-13
3.008673983e-13
2.735158166e-13
2.48650742e-13
2.260461294e-13
2.054964813e-13
1.868149828e-13
1.698318028e-13
1.543925477e-13
1.403568616e-13
1.275971471e-13
1.159974062e-13
1.054521875e-13
9.586562535e-14
8.715056829e-14
7.922778925e-14
7.202526285e-14
6.54775121e-14
5.952501079e-14
5.411364612e-14
4.919422369e-14
4.472202175e-14
4.065638309e-14
3.696034874e-14
3.360031651e-14
3.054574249e-14
2.776885702e-14
2.524441484e-14
2.294946846e-14
2.086315367e-14
1.896650234e-14
1.724227543e-14
1.567479611e-14
1.424981407e-14
1.295437685e-14
1.17767058e-14
1.070609639e-14
9.732815009e-15
8.84801375e-15
8.043648706e-15
7.312407493e-15
6.647643755e-15
4.845499567e-13
4.404999604e-13
4.004545098e-13
3.640495546e-13
3.309541398e-13
3.008674004e-13
2.735158185e-13
2.486507441e-13
2.260461306e-13
2.054964826e-13
1.868149843e-13
1.698318037e-13
1.54392549e-13
1.403568625e-13
1.275971478e-13
1.159974073e-13
1.054521882e-13
9.586562564e-14
8.71505691e-14
7.92277899e-14
7.202526345e-14
6.547751213e-14
5.952501141e-14
5.411364655e-14
4.919422409e-14
4.472202185e-14
4.065638369e-14
3.696034852e-14
3.360031727e-14
3.054574249e-14
2.7768857e-14
2.524441565e-14
2.29494682e-14
2.086315329e-14
1.896650347e-14
1.724227497e-14
1.567479596e-14
1.424981474e-14
1.295437651e-14
1.17767063e-14
1.070609626e-14
9.732814971e-15
8.848013706e-15
8.043648919e-15
7.312407965e-15
6.647643221e-15
6.043312546e-15
4.40499964e-13
4.004545125e-13
3.640495571e-13
3.30954143e-13
3.008674021e-13
2.735158206e-13
2.48650746e-13
2.260461327e-13
2.05496484e-13
1.868149856e-13
1.698318052e-13
1.5439255e-13
1.403568638e-13
1.275971487e-13
1.159974079e-13
1.054521892e-13
9.586562637e-14
8.715056943e-14
7.922779069e-14
7.202526409e-14
6.547751272e-14
5.952501148e-14
5.411364715e-14
4.919422451e-14
4.472202224e-14
4.065638381e-14
3.696034909e-14
3.360031709e-14
3.05457432e-14
2.776885702e-14
2.524441565e-14
2.294946895e-14
2.086315306e-14
1.896650313e-14
1.724227601e-14
1.567479555e-14
1.424981461e-14
1.295437714e-14
1.177670601e-14
1.070609672e-14
9.732814853e-15
8.848013677e-15
8.043648884e-15
7.312408164e-15
6.647643655e-15
6.043312065e-15
5.493920538e-15
4.004545027e-13
3.640495477e-13
3.309541345e-13
3.008673952e-13
2.735158132e-13
2.486507398e-13
2.26046127e-13
2.054964791e-13
1.868149807e-13
1.698318009e-13
1.543925463e-13
1.403568601e-13
1.275971457e-13
1.15997405e-13
1.054521864e-13
9.586562419e-14
8.715056725e-14
7.92277884e-14
7.202526246e-14
6.547751117e-14
5.952501008e-14
5.411364545e-14
4.919422345e-14
4.472202116e-14
4.065638283e-14
3.696034799e-14
3.360031651e-14
3.054574205e-14
2.776885676e-14
2.524441484e-14
2.29494682e-14
2.086315306e-14
1.896650231e-14
1.724227514e-14
1.567479598e-14
1.424981378e-14
1.29543766e-14
1.177670619e-14
1.070609611e-14
9.732814958e-15
8.848013281e-15
8.043648596e-15
7.312407894e-15
6.647643619e-15
6.043312262e-15
5.493919921e-15
4.994473091e-15
3.640495546e-13
3.309541403e-13
3.008674005e-13
2.735158189e-13
2.486507439e-13
2.260461312e-13
2.054964829e-13
1.868149845e-13
1.698318038e-13
1.543925491e-13
1.403568628e-13
1.275971479e-13
1.159974074e-13
1.054521883e-13
9.586562575e-14
8.715056904e-14
7.922778986e-14
7.202526351e-14
6.547751253e-14
5.952501125e-14
5.411364652e-14
4.919422404e-14
4.472202214e-14
4.065638362e-14
3.696034871e-14
3.360031697e-14
3.054574285e-14
2.776885692e-14
2.52444157e-14
2.294946846e-14
2.086315329e-14
1.896650313e-14
1.724227514e-14
1.567479587e-14
1.424981479e-14
1.29543764e-14
1.177670621e-14
1.070609674e-14
9.73281482e-15
8.848013761e-15
8.043648585e-15
7.312407949e-15
6.647643662e-15
6.043312492e-15
5.493920339e-15
4.994472748e-15
4.540430166e-15
3.309541489e-13
3.008674079e-13
2.735158256e-13
2.486507507e-13
2.260461365e-13
2.054964881e-13
1.868149892e-13
1.698318083e-13
1.543925528e-13
1.403568664e-13
1.275971513e-13
1.159974101e-13
1.054521912e-13
9.586562817e-14
8.715057107e-14
7.922779204e-14
7.202526533e-14
6.547751393e-14
5.95250129e-14
5.411364796e-14
4.919422535e-14
4.472202298e-14
4.065638479e-14
3.696034968e-14
3.360031786e-14
3.054574347e-14
2.776885783e-14
2.524441602e-14
2.29494694e-14
2.086315367e-14
1.896650347e-14
1.724227601e-14
1.567479598e-14
1.424981479e-14
1.295437741e-14
1.177670611e-14
1.070609683e-14
9.732815462e-15
8.848013696e-15
8.043649076e-15
7.312407989e-15
6.647643758e-15
6.043312572e-15
5.493920586e-15
4.994473162e-15
4.540429885e-15
4.127663892e-15
3.008673922e-13
2.735158109e-13
2.486507374e-13
2.260461251e-13
2.054964769e-13
1.868149793e-13
1.698317994e-13
1.543925449e-13
1.403568588e-13
1.275971445e-13
1.159974041e-13
1.054521854e-13
9.586562327e-14
8.715056646e-14
7.92277877e-14
7.202526169e-14
6.547751048e-14
5.952500953e-14
5.411364523e-14
4.919422282e-14
4.472202068e-14
4.065638238e-14
3.696034786e-14
3.360031611e-14
3.054574189e-14
2.776885624e-14
2.524441488e-14
2.294946789e-14
2.08631529e-14
1.896650234e-14
1.724227497e-14
1.567479555e-14
1.424981378e-14
1.29543764e-14
1.177670611e-14
1.07060959e-14
9.732814784e-15
8.848013589e-15
8.04364839e-15
7.312407865e-15
6.647643276e-15
6.043312188e-15
5.49392023e-15
4.994472996e-15
4.540429907e-15
4.127663314e-15
3.752421522e-15
2.735158203e-13
2.486507456e-13
2.260461325e-13
2.054964842e-13
1.868149853e-13
1.698318051e-13
1.543925501e-13
1.403568637e-13
1.275971486e-13
1.15997408e-13
1.054521891e-13
9.586562635e-14
8.715056954e-14
7.922779036e-14
7.202526396e-14
6.547751283e-14
5.952501153e-14
5.411364684e-14
4.919422459e-14
4.472202225e-14
4.065638381e-14
3.696034886e-14
3.360031736e-14
3.054574295e-14
2.77688572e-14
2.524441561e-14
2.294946884e-14
2.086315333e-14
1.896650327e-14
1.724227543e-14
1.567479596e-14
1.424981461e-14
1.29543766e-14
1.177670621e-14
1.070609683e-14
9.732814784e-15
8.848013738e-15
8.043648988e-15
7.312407873e-15
6.647643737e-15
6.043312272e-15
5.493920356e-15
4.994473105e-15
4.540430149e-15
4.127663691e-15
3.752421321e-15
3.411292407e-15
2.486507499e-13
2.260461361e-13
2.054964876e-13
1.868149888e-13
1.698318076e-13
1.543925527e-13
1.403568661e-13
1.27597151e-13
1.159974098e-13
1.054521908e-13
9.586562807e-14
8.715057087e-14
7.922779183e-14
7.202526517e-14
6.547751379e-14
5.952501266e-14
5.411364775e-14
4.919422523e-14
4.472202311e-14
4.065638455e-14
3.696034954e-14
3.360031771e-14
3.054574357e-14
2.776885769e-14
2.524441606e-14
2.294946912e-14
2.086315385e-14
1.896650335e-14
1.724227599e-14
1.567479611e-14
1.424981474e-14
1.295437714e-14
1.177670619e-14
1.070609674e-14
9.732815462e-15
8.848013589e-15
8.043648988e-15
7.312408293e-15
6.647643633e-15
6.04331259e-15
5.49392034e-15
4.994473134e-15
4.540430171e-15
4.127663841e-15
3.7524216e-15
3.411292167e-15
3.101174968e-15
2.260461271e-13
2.05496479e-13
1.868149811e-13
1.698318011e-13
1.543925461e-13
1.403568604e-13
1.275971458e-13
1.159974053e-13
1.054521864e-13
9.586562414e-14
8.715056743e-14
7.922778848e-14
7.202526237e-14
6.547751113e-14
5.952501012e-14
5.411364567e-14
4.919422323e-14
4.472202112e-14
4.065638299e-14
3.696034808e-14
3.360031639e-14
3.054574213e-14
2.776885666e-14
2.524441506e-14
2.294946821e-14
2.08631529e-14
1.896650272e-14
1.724227507e-14
1.567479572e-14
1.424981407e-14
1.295437651e-14
1.177670601e-14
1.070609611e-14
9.73281482e-15
8.848013696e-15
8.04364839e-15
7.312407873e-15
6.647643633e-15
6.043312148e-15
5.493920313e-15
4.994472833e-15
4.540429938e-15
4.127663624e-15
3.752421521e-15
3.411292225e-15
3.101174571e-15
2.819249856e-15
2.054964858e-13
1.86814987e-13
1.698318065e-13
1.543925515e-13
1.403568647e-13
1.2759715e-13
1.15997409e-13
1.0545219e-13
9.586562715e-14
8.715057024e-14
7.922779115e-14
7.20252646e-14
6.547751337e-14