/*--------------------------------*- C++ -*----------------------------------*\
  =========                 |
  \\      /  F ield         | OpenFOAM: The Open Source CFD Toolbox
   \\    /   O peration     | Website:  https://openfoam.org
    \\  /    A nd           | Version:  7
     \\/     M anipulation  |
\*---------------------------------------------------------------------------*/
FoamFile
{
    version     2.0;
    format      ascii;
    class       volScalarField;
    location    "constant";
    object      Cz;
}
// * * * * * * * * * * * * * * * * * * * * * * * * * * * * * * * * * * * * * //

dimensions      [0 1 0 0 0 0 0];

internalField   nonuniform List<scalar> 
31819
(
4.712924485e-05
4.712924485e-05
4.712924485e-05
4.712924485e-05
4.712924485e-05
4.712924485e-05
4.712924485e-05
4.712924485e-05
4.712924485e-05
4.712924485e-05
4.712924485e-05
4.712924485e-05
4.712924485e-05
4.712924485e-05
4.712924485e-05
4.712924485e-05
4.712924485e-05
4.712924485e-05
4.712924485e-05
4.712924485e-05
4.712924485e-05
4.712924485e-05
4.712924485e-05
4.712924485e-05
4.712924485e-05
4.712924485e-05
4.712924485e-05
4.712924485e-05
4.712924485e-05
4.712924485e-05
4.712924485e-05
4.712924485e-05
4.712924485e-05
4.712924485e-05
4.712924485e-05
4.712924485e-05
4.712924485e-05
4.712924485e-05
4.712924485e-05
4.712924485e-05
4.712924485e-05
4.712924485e-05
4.712924485e-05
4.712924485e-05
4.712924485e-05
4.712924485e-05
4.712924485e-05
0.000141083062
0.000141083062
0.000141083062
0.000141083062
0.000141083062
0.000141083062
0.000141083062
0.000141083062
0.000141083062
0.000141083062
0.000141083062
0.000141083062
0.000141083062
0.000141083062
0.000141083062
0.000141083062
0.000141083062
0.000141083062
0.000141083062
0.000141083062
0.000141083062
0.000141083062
0.000141083062
0.000141083062
0.000141083062
0.000141083062
0.000141083062
0.000141083062
0.000141083062
0.000141083062
0.000141083062
0.000141083062
0.000141083062
0.000141083062
0.000141083062
0.000141083062
0.000141083062
0.000141083062
0.000141083062
0.000141083062
0.000141083062
0.000141083062
0.000141083062
0.000141083062
0.000141083062
0.000141083062
0.000141083062
0.0002344295036
0.0002344295036
0.0002344295036
0.0002344295036
0.0002344295036
0.0002344295036
0.0002344295036
0.0002344295036
0.0002344295036
0.0002344295036
0.0002344295036
0.0002344295036
0.0002344295036
0.0002344295036
0.0002344295036
0.0002344295036
0.0002344295036
0.0002344295036
0.0002344295036
0.0002344295036
0.0002344295036
0.0002344295036
0.0002344295036
0.0002344295036
0.0002344295036
0.0002344295036
0.0002344295036
0.0002344295036
0.0002344295036
0.0002344295036
0.0002344295036
0.0002344295036
0.0002344295036
0.0002344295036
0.0002344295036
0.0002344295036
0.0002344295036
0.0002344295036
0.0002344295036
0.0002344295036
0.0002344295036
0.0002344295036
0.0002344295036
0.0002344295036
0.0002344295036
0.0002344295036
0.0002344295036
0.0003271724961
0.0003271724961
0.0003271724961
0.0003271724961
0.0003271724962
0.0003271724961
0.0003271724961
0.0003271724962
0.0003271724961
0.0003271724961
0.0003271724961
0.0003271724961
0.0003271724961
0.0003271724961
0.0003271724961
0.0003271724961
0.0003271724961
0.0003271724961
0.0003271724961
0.0003271724961
0.0003271724961
0.0003271724961
0.0003271724961
0.0003271724961
0.0003271724961
0.0003271724961
0.0003271724961
0.0003271724961
0.0003271724961
0.0003271724961
0.0003271724961
0.0003271724961
0.0003271724961
0.0003271724961
0.0003271724961
0.0003271724961
0.0003271724962
0.0003271724961
0.0003271724961
0.0003271724961
0.0003271724961
0.0003271724961
0.0003271724962
0.0003271724961
0.0003271724961
0.0003271724961
0.0003271724961
0.0004193159407
0.0004193159407
0.0004193159407
0.0004193159407
0.0004193159407
0.0004193159407
0.0004193159407
0.0004193159407
0.0004193159407
0.0004193159407
0.0004193159407
0.0004193159407
0.0004193159407
0.0004193159407
0.0004193159407
0.0004193159407
0.0004193159407
0.0004193159407
0.0004193159407
0.0004193159407
0.0004193159407
0.0004193159407
0.0004193159407
0.0004193159407
0.0004193159407
0.0004193159407
0.0004193159407
0.0004193159407
0.0004193159407
0.0004193159407
0.0004193159407
0.0004193159407
0.0004193159407
0.0004193159407
0.0004193159407
0.0004193159407
0.0004193159407
0.0004193159407
0.0004193159407
0.0004193159407
0.0004193159407
0.0004193159407
0.0004193159407
0.0004193159407
0.0004193159407
0.0004193159407
0.0004193159407
0.0005108637131
0.0005108637131
0.0005108637131
0.0005108637131
0.0005108637131
0.0005108637131
0.0005108637131
0.0005108637131
0.0005108637131
0.0005108637131
0.0005108637131
0.0005108637131
0.0005108637131
0.0005108637131
0.0005108637131
0.0005108637131
0.0005108637131
0.0005108637131
0.0005108637131
0.0005108637131
0.0005108637131
0.0005108637131
0.0005108637131
0.0005108637131
0.0005108637131
0.0005108637131
0.0005108637131
0.0005108637131
0.0005108637131
0.0005108637131
0.0005108637131
0.0005108637131
0.0005108637131
0.0005108637131
0.0005108637131
0.0005108637131
0.0005108637131
0.0005108637131
0.0005108637131
0.0005108637131
0.0005108637131
0.0005108637131
0.0005108637131
0.0005108637131
0.0005108637131
0.0005108637131
0.0005108637131
0.0006018196641
0.0006018196641
0.0006018196641
0.0006018196641
0.0006018196641
0.0006018196641
0.0006018196641
0.0006018196642
0.0006018196641
0.0006018196641
0.0006018196641
0.0006018196641
0.0006018196641
0.0006018196642
0.0006018196641
0.0006018196641
0.0006018196642
0.0006018196642
0.0006018196641
0.0006018196642
0.0006018196641
0.0006018196642
0.0006018196641
0.0006018196641
0.0006018196641
0.0006018196641
0.0006018196641
0.0006018196642
0.0006018196641
0.0006018196641
0.0006018196641
0.0006018196642
0.0006018196641
0.0006018196641
0.0006018196641
0.0006018196641
0.0006018196641
0.0006018196641
0.0006018196641
0.0006018196641
0.0006018196641
0.0006018196641
0.0006018196641
0.0006018196642
0.0006018196641
0.0006018196642
0.0006018196642
0.0006921876197
0.0006921876197
0.0006921876197
0.0006921876197
0.0006921876197
0.0006921876197
0.0006921876197
0.0006921876197
0.0006921876197
0.0006921876197
0.0006921876197
0.0006921876197
0.0006921876197
0.0006921876197
0.0006921876197
0.0006921876197
0.0006921876197
0.0006921876197
0.0006921876197
0.0006921876197
0.0006921876197
0.0006921876197
0.0006921876197
0.0006921876197
0.0006921876197
0.0006921876197
0.0006921876197
0.0006921876197
0.0006921876197
0.0006921876197
0.0006921876197
0.0006921876197
0.0006921876197
0.0006921876197
0.0006921876197
0.0006921876197
0.0006921876197
0.0006921876197
0.0006921876197
0.0006921876197
0.0006921876197
0.0006921876197
0.0006921876197
0.0006921876197
0.0006921876197
0.0006921876197
0.0006921876197
0.000781971381
0.000781971381
0.000781971381
0.000781971381
0.000781971381
0.000781971381
0.000781971381
0.000781971381
0.000781971381
0.000781971381
0.000781971381
0.000781971381
0.000781971381
0.000781971381
0.000781971381
0.000781971381
0.000781971381
0.000781971381
0.000781971381
0.000781971381
0.000781971381
0.000781971381
0.000781971381
0.000781971381
0.000781971381
0.000781971381
0.000781971381
0.000781971381
0.000781971381
0.000781971381
0.000781971381
0.000781971381
0.000781971381
0.000781971381
0.000781971381
0.000781971381
0.000781971381
0.000781971381
0.000781971381
0.000781971381
0.000781971381
0.000781971381
0.000781971381
0.000781971381
0.000781971381
0.000781971381
0.000781971381
0.0008711747246
0.0008711747246
0.0008711747246
0.0008711747246
0.0008711747246
0.0008711747246
0.0008711747246
0.0008711747246
0.0008711747246
0.0008711747246
0.0008711747246
0.0008711747246
0.0008711747246
0.0008711747246
0.0008711747246
0.0008711747246
0.0008711747246
0.0008711747246
0.0008711747246
0.0008711747246
0.0008711747246
0.0008711747246
0.0008711747246
0.0008711747246
0.0008711747246
0.0008711747246
0.0008711747246
0.0008711747246
0.0008711747246
0.0008711747246
0.0008711747246
0.0008711747246
0.0008711747246
0.0008711747246
0.0008711747246
0.0008711747246
0.0008711747246
0.0008711747246
0.0008711747246
0.0008711747246
0.0008711747246
0.0008711747246
0.0008711747246
0.0008711747246
0.0008711747246
0.0008711747246
0.0008711747246
0.0009598014027
0.0009598014027
0.0009598014027
0.0009598014028
0.0009598014028
0.0009598014028
0.0009598014027
0.0009598014027
0.0009598014027
0.0009598014028
0.0009598014027
0.0009598014028
0.0009598014027
0.0009598014027
0.0009598014027
0.0009598014027
0.0009598014027
0.0009598014028
0.0009598014027
0.0009598014027
0.0009598014027
0.0009598014027
0.0009598014027
0.0009598014028
0.0009598014027
0.0009598014027
0.0009598014027
0.0009598014027
0.0009598014027
0.0009598014027
0.0009598014027
0.0009598014027
0.0009598014027
0.0009598014027
0.0009598014027
0.0009598014028
0.0009598014027
0.0009598014028
0.0009598014028
0.0009598014027
0.0009598014028
0.0009598014027
0.0009598014027
0.0009598014028
0.0009598014027
0.0009598014027
0.0009598014027
0.001047855143
0.001047855143
0.001047855143
0.001047855143
0.001047855143
0.001047855143
0.001047855143
0.001047855143
0.001047855143
0.001047855143
0.001047855143
0.001047855143
0.001047855143
0.001047855143
0.001047855143
0.001047855143
0.001047855143
0.001047855143
0.001047855143
0.001047855143
0.001047855143
0.001047855143
0.001047855143
0.001047855143
0.001047855143
0.001047855143
0.001047855143
0.001047855143
0.001047855143
0.001047855143
0.001047855143
0.001047855143
0.001047855143
0.001047855143
0.001047855143
0.001047855143
0.001047855143
0.001047855143
0.001047855143
0.001047855143
0.001047855143
0.001047855143
0.001047855143
0.001047855143
0.001047855143
0.001047855143
0.001047855143
0.001135339649
0.001135339649
0.001135339649
0.00113533965
0.00113533965
0.001135339649
0.00113533965
0.001135339649
0.00113533965
0.00113533965
0.00113533965
0.00113533965
0.001135339649
0.001135339649
0.00113533965
0.00113533965
0.00113533965
0.00113533965
0.00113533965
0.001135339649
0.00113533965
0.001135339649
0.001135339649
0.00113533965
0.00113533965
0.00113533965
0.00113533965
0.001135339649
0.001135339649
0.00113533965
0.00113533965
0.001135339649
0.00113533965
0.00113533965
0.001135339649
0.00113533965
0.00113533965
0.00113533965
0.00113533965
0.00113533965
0.001135339649
0.00113533965
0.001135339649
0.001135339649
0.001135339649
0.00113533965
0.00113533965
0.001222258602
0.001222258603
0.001222258603
0.001222258602
0.001222258602
0.001222258602
0.001222258602
0.001222258602
0.001222258603
0.001222258602
0.001222258602
0.001222258602
0.001222258603
0.001222258602
0.001222258602
0.001222258602
0.001222258602
0.001222258603
0.001222258603
0.001222258602
0.001222258602
0.001222258603
0.001222258603
0.001222258603
0.001222258602
0.001222258603
0.001222258602
0.001222258602
0.001222258603
0.001222258602
0.001222258602
0.001222258602
0.001222258602
0.001222258602
0.001222258603
0.001222258602
0.001222258602
0.001222258603
0.001222258602
0.001222258602
0.001222258603
0.001222258602
0.001222258602
0.001222258602
0.001222258603
0.001222258603
0.001222258602
0.001308615658
0.001308615658
0.001308615657
0.001308615657
0.001308615657
0.001308615658
0.001308615657
0.001308615657
0.001308615658
0.001308615657
0.001308615657
0.001308615657
0.001308615657
0.001308615657
0.001308615657
0.001308615658
0.001308615657
0.001308615657
0.001308615657
0.001308615657
0.001308615657
0.001308615657
0.001308615658
0.001308615657
0.001308615657
0.001308615658
0.001308615657
0.001308615658
0.001308615657
0.001308615657
0.001308615658
0.001308615658
0.001308615657
0.001308615658
0.001308615657
0.001308615657
0.001308615658
0.001308615657
0.001308615657
0.001308615658
0.001308615657
0.001308615657
0.001308615657
0.001308615658
0.001308615657
0.001308615658
0.001308615658
0.001394414447
0.001394414447
0.001394414447
0.001394414447
0.001394414447
0.001394414447
0.001394414447
0.001394414447
0.001394414447
0.001394414447
0.001394414447
0.001394414447
0.001394414447
0.001394414447
0.001394414447
0.001394414447
0.001394414447
0.001394414447
0.001394414447
0.001394414447
0.001394414447
0.001394414447
0.001394414447
0.001394414447
0.001394414447
0.001394414447
0.001394414447
0.001394414447
0.001394414447
0.001394414447
0.001394414447
0.001394414447
0.001394414447
0.001394414447
0.001394414447
0.001394414447
0.001394414447
0.001394414447
0.001394414447
0.001394414447
0.001394414447
0.001394414447
0.001394414447
0.001394414447
0.001394414447
0.001394414447
0.001394414447
0.00147965858
0.00147965858
0.00147965858
0.00147965858
0.00147965858
0.00147965858
0.00147965858
0.00147965858
0.00147965858
0.00147965858
0.00147965858
0.00147965858
0.00147965858
0.00147965858
0.00147965858
0.00147965858
0.00147965858
0.00147965858
0.00147965858
0.00147965858
0.00147965858
0.00147965858
0.00147965858
0.00147965858
0.00147965858
0.00147965858
0.00147965858
0.00147965858
0.00147965858
0.00147965858
0.00147965858
0.00147965858
0.00147965858
0.00147965858
0.00147965858
0.00147965858
0.00147965858
0.00147965858
0.00147965858
0.00147965858
0.00147965858
0.00147965858
0.00147965858
0.00147965858
0.00147965858
0.00147965858
0.00147965858
0.001564351643
0.001564351643
0.001564351643
0.001564351642
0.001564351643
0.001564351643
0.001564351643
0.001564351643
0.001564351642
0.001564351642
0.001564351642
0.001564351643
0.001564351642
0.001564351642
0.001564351642
0.001564351643
0.001564351642
0.001564351642
0.001564351642
0.001564351642
0.001564351642
0.001564351642
0.001564351643
0.001564351642
0.001564351642
0.001564351642
0.001564351642
0.001564351642
0.001564351642
0.001564351643
0.001564351642
0.001564351642
0.001564351642
0.001564351642
0.001564351642
0.001564351642
0.001564351642
0.001564351643
0.001564351642
0.001564351642
0.001564351642
0.001564351643
0.001564351643
0.001564351642
0.001564351642
0.001564351642
0.001564351643
0.001648497197
0.001648497197
0.001648497197
0.001648497197
0.001648497197
0.001648497197
0.001648497197
0.001648497197
0.001648497197
0.001648497197
0.001648497197
0.001648497197
0.001648497197
0.001648497197
0.001648497197
0.001648497197
0.001648497197
0.001648497197
0.001648497197
0.001648497197
0.001648497197
0.001648497197
0.001648497197
0.001648497197
0.001648497197
0.001648497197
0.001648497197
0.001648497197
0.001648497197
0.001648497197
0.001648497197
0.001648497197
0.001648497197
0.001648497197
0.001648497197
0.001648497197
0.001648497197
0.001648497197
0.001648497197
0.001648497197
0.001648497197
0.001648497197
0.001648497197
0.001648497197
0.001648497197
0.001648497197
0.001648497197
0.001732098782
0.001732098783
0.001732098783
0.001732098783
0.001732098782
0.001732098782
0.001732098782
0.001732098783
0.001732098783
0.001732098782
0.001732098783
0.001732098782
0.001732098782
0.001732098782
0.001732098783
0.001732098782
0.001732098783
0.001732098783
0.001732098782
0.001732098783
0.001732098782
0.001732098782
0.001732098782
0.001732098783
0.001732098782
0.001732098782
0.001732098782
0.001732098782
0.001732098783
0.001732098783
0.001732098783
0.001732098782
0.001732098783
0.001732098783
0.001732098783
0.001732098783
0.001732098782
0.001732098783
0.001732098783
0.001732098782
0.001732098782
0.001732098782
0.001732098782
0.001732098782
0.001732098782
0.001732098782
0.001732098782
0.001815159915
0.001815159915
0.001815159915
0.001815159915
0.001815159915
0.001815159916
0.001815159915
0.001815159915
0.001815159916
0.001815159915
0.001815159915
0.001815159915
0.001815159915
0.001815159916
0.001815159915
0.001815159916
0.001815159915
0.001815159915
0.001815159916
0.001815159915
0.001815159916
0.001815159915
0.001815159916
0.001815159916
0.001815159915
0.001815159916
0.001815159915
0.001815159915
0.001815159915
0.001815159915
0.001815159915
0.001815159916
0.001815159915
0.001815159915
0.001815159916
0.001815159915
0.001815159915
0.001815159915
0.001815159915
0.001815159916
0.001815159915
0.001815159916
0.001815159916
0.001815159916
0.001815159915
0.001815159915
0.001815159915
0.00189768409
0.00189768409
0.00189768409
0.00189768409
0.00189768409
0.00189768409
0.00189768409
0.00189768409
0.00189768409
0.00189768409
0.00189768409
0.00189768409
0.00189768409
0.00189768409
0.00189768409
0.00189768409
0.00189768409
0.00189768409
0.00189768409
0.00189768409
0.00189768409
0.00189768409
0.00189768409
0.00189768409
0.00189768409
0.00189768409
0.00189768409
0.00189768409
0.00189768409
0.00189768409
0.00189768409
0.00189768409
0.00189768409
0.00189768409
0.00189768409
0.00189768409
0.00189768409
0.00189768409
0.00189768409
0.00189768409
0.00189768409
0.00189768409
0.00189768409
0.00189768409
0.00189768409
0.00189768409
0.00189768409
0.001979674777
0.001979674777
0.001979674777
0.001979674777
0.001979674777
0.001979674777
0.001979674777
0.001979674777
0.001979674777
0.001979674777
0.001979674777
0.001979674777
0.001979674777
0.001979674777
0.001979674777
0.001979674777
0.001979674777
0.001979674777
0.001979674778
0.001979674777
0.001979674777
0.001979674777
0.001979674777
0.001979674777
0.001979674777
0.001979674777
0.001979674777
0.001979674777
0.001979674777
0.001979674777
0.001979674777
0.001979674777
0.001979674777
0.001979674777
0.001979674777
0.001979674777
0.001979674777
0.001979674777
0.001979674777
0.001979674777
0.001979674777
0.001979674777
0.001979674777
0.001979674777
0.001979674777
0.001979674777
0.001979674777
0.002061135426
0.002061135427
0.002061135427
0.002061135427
0.002061135427
0.002061135427
0.002061135426
0.002061135426
0.002061135426
0.002061135426
0.002061135427
0.002061135426
0.002061135427
0.002061135426
0.002061135427
0.002061135426
0.002061135426
0.002061135427
0.002061135427
0.002061135427
0.002061135426
0.002061135427
0.002061135426
0.002061135427
0.002061135427
0.002061135426
0.002061135426
0.002061135427
0.002061135427
0.002061135427
0.002061135427
0.002061135426
0.002061135427
0.002061135427
0.002061135427
0.002061135427
0.002061135426
0.002061135426
0.002061135426
0.002061135427
0.002061135426
0.002061135426
0.002061135426
0.002061135427
0.002061135426
0.002061135426
0.002061135427
0.002142069463
0.002142069463
0.002142069463
0.002142069463
0.002142069463
0.002142069463
0.002142069463
0.002142069463
0.002142069463
0.002142069463
0.002142069463
0.002142069463
0.002142069463
0.002142069463
0.002142069463
0.002142069463
0.002142069463
0.002142069463
0.002142069463
0.002142069463
0.002142069463
0.002142069463
0.002142069463
0.002142069463
0.002142069463
0.002142069463
0.002142069463
0.002142069463
0.002142069463
0.002142069463
0.002142069463
0.002142069463
0.002142069463
0.002142069463
0.002142069463
0.002142069463
0.002142069463
0.002142069463
0.002142069463
0.002142069463
0.002142069463
0.002142069463
0.002142069463
0.002142069463
0.002142069463
0.002142069463
0.002142069463
0.002222480292
0.002222480292
0.002222480292
0.002222480292
0.002222480292
0.002222480292
0.002222480292
0.002222480292
0.002222480292
0.002222480292
0.002222480292
0.002222480292
0.002222480292
0.002222480292
0.002222480292
0.002222480292
0.002222480292
0.002222480292
0.002222480292
0.002222480292
0.002222480292
0.002222480292
0.002222480292
0.002222480292
0.002222480292
0.002222480292
0.002222480292
0.002222480292
0.002222480292
0.002222480292
0.002222480292
0.002222480292
0.002222480292
0.002222480292
0.002222480292
0.002222480292
0.002222480292
0.002222480292
0.002222480292
0.002222480292
0.002222480292
0.002222480292
0.002222480292
0.002222480292
0.002222480292
0.002222480292
0.002222480292
0.002302371296
0.002302371296
0.002302371296
0.002302371296
0.002302371296
0.002302371296
0.002302371296
0.002302371296
0.002302371296
0.002302371296
0.002302371296
0.002302371296
0.002302371296
0.002302371296
0.002302371296
0.002302371296
0.002302371296
0.002302371296
0.002302371296
0.002302371296
0.002302371296
0.002302371296
0.002302371296
0.002302371296
0.002302371296
0.002302371296
0.002302371296
0.002302371296
0.002302371296
0.002302371296
0.002302371296
0.002302371296
0.002302371296
0.002302371296
0.002302371296
0.002302371296
0.002302371296
0.002302371296
0.002302371296
0.002302371296
0.002302371296
0.002302371296
0.002302371296
0.002302371296
0.002302371296
0.002302371296
0.002302371296
0.002381745835
0.002381745836
0.002381745836
0.002381745836
0.002381745835
0.002381745836
0.002381745836
0.002381745836
0.002381745836
0.002381745836
0.002381745836
0.002381745836
0.002381745835
0.002381745835
0.002381745835
0.002381745836
0.002381745835
0.002381745836
0.002381745836
0.002381745836
0.002381745836
0.002381745836
0.002381745835
0.002381745836
0.002381745836
0.002381745836
0.002381745835
0.002381745836
0.002381745836
0.002381745836
0.002381745836
0.002381745835
0.002381745836
0.002381745836
0.002381745835
0.002381745836
0.002381745836
0.002381745835
0.002381745836
0.002381745836
0.002381745836
0.002381745836
0.002381745835
0.002381745836
0.002381745835
0.002381745836
0.002381745836
0.002460607249
0.002460607249
0.002460607249
0.002460607249
0.002460607249
0.002460607249
0.002460607249
0.002460607249
0.002460607249
0.002460607249
0.002460607249
0.002460607249
0.002460607249
0.002460607249
0.002460607249
0.002460607249
0.002460607249
0.002460607249
0.002460607249
0.002460607249
0.002460607249
0.002460607249
0.002460607249
0.002460607249
0.002460607249
0.002460607249
0.002460607249
0.002460607249
0.002460607249
0.002460607249
0.002460607249
0.002460607249
0.002460607249
0.002460607249
0.002460607249
0.002460607249
0.002460607249
0.002460607249
0.002460607249
0.002460607249
0.002460607249
0.002460607249
0.002460607249
0.002460607249
0.002460607249
0.002460607249
0.002460607249
0.002538958853
0.002538958853
0.002538958853
0.002538958853
0.002538958853
0.002538958853
0.002538958853
0.002538958853
0.002538958853
0.002538958853
0.002538958853
0.002538958853
0.002538958853
0.002538958853
0.002538958853
0.002538958853
0.002538958853
0.002538958853
0.002538958853
0.002538958853
0.002538958853
0.002538958853
0.002538958853
0.002538958853
0.002538958853
0.002538958853
0.002538958853
0.002538958853
0.002538958853
0.002538958853
0.002538958853
0.002538958853
0.002538958853
0.002538958853
0.002538958853
0.002538958853
0.002538958853
0.002538958853
0.002538958853
0.002538958853
0.002538958853
0.002538958853
0.002538958853
0.002538958853
0.002538958853
0.002538958853
0.002538958853
0.002616803944
0.002616803944
0.002616803944
0.002616803944
0.002616803944
0.002616803944
0.002616803944
0.002616803944
0.002616803944
0.002616803944
0.002616803944
0.002616803944
0.002616803944
0.002616803944
0.002616803944
0.002616803944
0.002616803944
0.002616803944
0.002616803944
0.002616803944
0.002616803944
0.002616803944
0.002616803944
0.002616803944
0.002616803944
0.002616803944
0.002616803944
0.002616803944
0.002616803944
0.002616803944
0.002616803944
0.002616803944
0.002616803944
0.002616803944
0.002616803944
0.002616803944
0.002616803944
0.002616803944
0.002616803944
0.002616803944
0.002616803944
0.002616803944
0.002616803944
0.002616803944
0.002616803944
0.002616803944
0.002616803944
0.002694145796
0.002694145797
0.002694145796
0.002694145796
0.002694145796
0.002694145796
0.002694145797
0.002694145796
0.002694145796
0.002694145796
0.002694145796
0.002694145796
0.002694145796
0.002694145796
0.002694145797
0.002694145796
0.002694145797
0.002694145796
0.002694145796
0.002694145796
0.002694145796
0.002694145796
0.002694145797
0.002694145796
0.002694145796
0.002694145796
0.002694145796
0.002694145796
0.002694145797
0.002694145796
0.002694145796
0.002694145796
0.002694145797
0.002694145796
0.002694145796
0.002694145796
0.002694145796
0.002694145797
0.002694145796
0.002694145796
0.002694145796
0.002694145797
0.002694145796
0.002694145796
0.002694145796
0.002694145796
0.002694145796
0.002770987663
0.002770987663
0.002770987663
0.002770987663
0.002770987663
0.002770987663
0.002770987663
0.002770987663
0.002770987663
0.002770987663
0.002770987663
0.002770987663
0.002770987663
0.002770987663
0.002770987663
0.002770987663
0.002770987663
0.002770987663
0.002770987663
0.002770987663
0.002770987663
0.002770987663
0.002770987663
0.002770987663
0.002770987663
0.002770987663
0.002770987663
0.002770987663
0.002770987663
0.002770987663
0.002770987663
0.002770987663
0.002770987663
0.002770987663
0.002770987663
0.002770987663
0.002770987663
0.002770987663
0.002770987663
0.002770987663
0.002770987663
0.002770987663
0.002770987663
0.002770987663
0.002770987663
0.002770987663
0.002770987663
0.002847332776
0.002847332776
0.002847332776
0.002847332776
0.002847332776
0.002847332776
0.002847332777
0.002847332776
0.002847332776
0.002847332776
0.002847332776
0.002847332776
0.002847332776
0.002847332776
0.002847332777
0.002847332777
0.002847332776
0.002847332777
0.002847332776
0.002847332777
0.002847332777
0.002847332776
0.002847332776
0.002847332777
0.002847332776
0.002847332776
0.002847332776
0.002847332777
0.002847332776
0.002847332776
0.002847332777
0.002847332776
0.002847332776
0.002847332776
0.002847332776
0.002847332776
0.002847332776
0.002847332776
0.002847332776
0.002847332777
0.002847332776
0.002847332776
0.002847332776
0.002847332776
0.002847332776
0.002847332776
0.002847332777
0.002923184348
0.002923184348
0.002923184348
0.002923184348
0.002923184348
0.002923184348
0.002923184348
0.002923184348
0.002923184348
0.002923184348
0.002923184348
0.002923184348
0.002923184348
0.002923184348
0.002923184348
0.002923184348
0.002923184348
0.002923184348
0.002923184348
0.002923184348
0.002923184348
0.002923184348
0.002923184348
0.002923184348
0.002923184348
0.002923184348
0.002923184348
0.002923184348
0.002923184348
0.002923184348
0.002923184348
0.002923184348
0.002923184348
0.002923184348
0.002923184348
0.002923184348
0.002923184348
0.002923184348
0.002923184348
0.002923184348
0.002923184348
0.002923184348
0.002923184348
0.002923184348
0.002923184348
0.002923184348
0.002923184348
0.002998545568
0.002998545568
0.002998545568
0.002998545568
0.002998545568
0.002998545568
0.002998545568
0.002998545568
0.002998545568
0.002998545568
0.002998545568
0.002998545568
0.002998545568
0.002998545568
0.002998545568
0.002998545568
0.002998545568
0.002998545568
0.002998545568
0.002998545568
0.002998545568
0.002998545568
0.002998545568
0.002998545568
0.002998545568
0.002998545568
0.002998545568
0.002998545568
0.002998545568
0.002998545568
0.002998545568
0.002998545568
0.002998545568
0.002998545568
0.002998545568
0.002998545568
0.002998545568
0.002998545568
0.002998545568
0.002998545568
0.002998545568
0.002998545568
0.002998545568
0.002998545568
0.002998545568
0.002998545568
0.002998545568
0.003073419607
0.003073419607
0.003073419607
0.003073419607
0.003073419607
0.003073419607
0.003073419607
0.003073419607
0.003073419607
0.003073419607
0.003073419607
0.003073419607
0.003073419607
0.003073419607
0.003073419607
0.003073419607
0.003073419607
0.003073419607
0.003073419607
0.003073419607
0.003073419607
0.003073419607
0.003073419607
0.003073419607
0.003073419607
0.003073419607
0.003073419607
0.003073419607
0.003073419607
0.003073419607
0.003073419607
0.003073419607
0.003073419607
0.003073419607
0.003073419607
0.003073419607
0.003073419607
0.003073419607
0.003073419607
0.003073419607
0.003073419607
0.003073419607
0.003073419607
0.003073419607
0.003073419607
0.003073419607
0.003073419607
0.003147809614
0.003147809613
0.003147809613
0.003147809613
0.003147809613
0.003147809613
0.003147809614
0.003147809613
0.003147809613
0.003147809613
0.003147809613
0.003147809613
0.003147809614
0.003147809613
0.003147809613
0.003147809614
0.003147809613
0.003147809614
0.003147809613
0.003147809613
0.003147809613
0.003147809614
0.003147809613
0.003147809613
0.003147809614
0.003147809613
0.003147809613
0.003147809613
0.003147809613
0.003147809613
0.003147809614
0.003147809613
0.003147809613
0.003147809613
0.003147809613
0.003147809613
0.003147809614
0.003147809613
0.003147809613
0.003147809613
0.003147809613
0.003147809613
0.003147809613
0.003147809614
0.003147809614
0.003147809613
0.003147809613
0.003221718717
0.003221718717
0.003221718717
0.003221718717
0.003221718717
0.003221718717
0.003221718717
0.003221718717
0.003221718717
0.003221718717
0.003221718717
0.003221718717
0.003221718717
0.003221718717
0.003221718717
0.003221718717
0.003221718717
0.003221718717
0.003221718717
0.003221718717
0.003221718717
0.003221718717
0.003221718717
0.003221718717
0.003221718717
0.003221718717
0.003221718717
0.003221718717
0.003221718717
0.003221718717
0.003221718717
0.003221718717
0.003221718717
0.003221718717
0.003221718717
0.003221718717
0.003221718717
0.003221718717
0.003221718717
0.003221718717
0.003221718717
0.003221718717
0.003221718717
0.003221718717
0.003221718717
0.003221718717
0.003221718717
0.003295150027
0.003295150026
0.003295150027
0.003295150027
0.003295150026
0.003295150026
0.003295150027
0.003295150026
0.003295150026
0.003295150026
0.003295150026
0.003295150026
0.003295150026
0.003295150027
0.003295150026
0.003295150026
0.003295150027
0.003295150026
0.003295150027
0.003295150026
0.003295150027
0.003295150026
0.003295150027
0.003295150026
0.003295150026
0.003295150026
0.003295150026
0.003295150026
0.003295150027
0.003295150026
0.003295150026
0.003295150026
0.003295150026
0.003295150026
0.003295150027
0.003295150027
0.003295150027
0.003295150026
0.003295150026
0.003295150026
0.003295150027
0.003295150026
0.003295150026
0.003295150026
0.003295150026
0.003295150026
0.003295150026
0.00336810663
0.003368106631
0.00336810663
0.00336810663
0.003368106631
0.003368106631
0.00336810663
0.003368106631
0.003368106631
0.003368106631
0.003368106631
0.00336810663
0.003368106631
0.00336810663
0.00336810663
0.00336810663
0.00336810663
0.003368106631
0.003368106631
0.003368106631
0.003368106631
0.003368106631
0.003368106631
0.00336810663
0.003368106631
0.003368106631
0.003368106631
0.003368106631
0.003368106631
0.00336810663
0.00336810663
0.003368106631
0.00336810663
0.003368106631
0.00336810663
0.003368106631
0.00336810663
0.003368106631
0.00336810663
0.003368106631
0.00336810663
0.00336810663
0.00336810663
0.003368106631
0.00336810663
0.00336810663
0.003368106631
0.003440591598
0.003440591598
0.003440591598
0.003440591598
0.003440591598
0.003440591598
0.003440591598
0.003440591598