/*--------------------------------*- C++ -*----------------------------------*\
  =========                 |
  \\      /  F ield         | OpenFOAM: The Open Source CFD Toolbox
   \\    /   O peration     | Website:  https://openfoam.org
    \\  /    A nd           | Version:  7
     \\/     M anipulation  |
\*---------------------------------------------------------------------------*/
FoamFile
{
    version     2.0;
    format      ascii;
    class       volScalarField;
    location    "constant";
    object      V;
}
// * * * * * * * * * * * * * * * * * * * * * * * * * * * * * * * * * * * * * //

dimensions      [0 3 0 0 0 0 0];

internalField   nonuniform List<scalar> 
31819
(
8.66722426e-12
7.879294777e-12
7.162995258e-12
6.511813875e-12
5.919830783e-12
5.381664358e-12
4.892422143e-12
4.447656494e-12
4.043324079e-12
3.675749167e-12
3.341590153e-12
3.037809226e-12
2.761644755e-12
2.510586137e-12
2.282351034e-12
2.07486458e-12
1.886240523e-12
1.714764112e-12
1.558876472e-12
1.417160425e-12
1.288327658e-12
1.17120696e-12
1.064733607e-12
9.67939639e-13
8.799451255e-13
7.999501132e-13
7.272273791e-13
6.61115794e-13
6.010143659e-13
5.463766877e-13
4.967060832e-13
4.515509881e-13
4.10500888e-13
3.731826323e-13
3.39256947e-13
3.084153901e-13
2.803776368e-13
2.54888765e-13
2.317170497e-13
2.106518702e-13
1.915016933e-13
1.740924519e-13
1.582658671e-13
1.438780627e-13
1.307982362e-13
1.189074806e-13
1.080977191e-13
8.611193968e-12
7.828358149e-12
7.116689232e-12
6.469717488e-12
5.88156134e-12
5.346873955e-12
4.860794504e-12
4.418904095e-12
4.017185535e-12
3.651986854e-12
3.31998805e-12
3.018170951e-12
2.743791778e-12
2.494356157e-12
2.267596507e-12
2.061451374e-12
1.874046699e-12
1.703678818e-12
1.548798931e-12
1.407999025e-12
1.279999112e-12
1.163635555e-12
1.057850511e-12
9.616822792e-13
8.742566166e-13
7.947787416e-13
7.225261321e-13
6.568419332e-13
5.971290378e-13
5.428445713e-13
4.934950682e-13
4.486318836e-13
4.078471567e-13
3.707701493e-13
3.370637806e-13
3.064216025e-13
2.785651026e-13
2.532410066e-13
2.302190875e-13
2.092900864e-13
1.902637081e-13
1.729670108e-13
1.572427388e-13
1.42947946e-13
1.299526757e-13
1.181387892e-13
1.073989087e-13
8.555525884e-12
7.777750799e-12
7.070682551e-12
6.427893232e-12
5.843539289e-12
5.312308455e-12
4.829371322e-12
4.390337565e-12
3.991215962e-12
3.628378152e-12
3.298525593e-12
2.998659627e-12
2.726054211e-12
2.478231096e-12
2.25293736e-12
2.048124877e-12
1.861931702e-12
1.692665184e-12
1.538786537e-12
1.398896848e-12
1.271724406e-12
1.156113094e-12
1.051011911e-12
9.554653701e-13
8.686048811e-13
7.896408001e-13
7.178552762e-13
6.525957006e-13
5.932688263e-13
5.393352882e-13
4.903048108e-13
4.457316496e-13
4.052105804e-13
3.683732617e-13
3.348847918e-13
3.044407037e-13
2.767642854e-13
2.516039001e-13
2.28730809e-13
2.079371058e-13
1.890337258e-13
1.71848845e-13
1.562262244e-13
1.420238421e-13
1.291125812e-13
1.17375067e-13
1.067046157e-13
8.500217689e-12
7.727470622e-12
7.024973298e-12
6.386339366e-12
5.805763048e-12
5.277966417e-12
4.798151288e-12
4.361955716e-12
3.965414281e-12
3.604922078e-12
3.27720189e-12
2.979274442e-12
2.708431315e-12
2.462210282e-12
2.238372984e-12
2.034884535e-12
1.849895028e-12
1.681722752e-12
1.528838872e-12
1.389853516e-12
1.263503195e-12
1.148639267e-12
1.044217522e-12
9.492886528e-13
8.629896835e-13
7.845360751e-13
7.132146171e-13
6.483769196e-13
5.894335708e-13
5.358486923e-13
4.871351782e-13
4.428501654e-13
4.025910493e-13
3.659918698e-13
3.3271989e-13
3.024726113e-13
2.749751104e-13
2.499773773e-13
2.27252152e-13
2.065928721e-13
1.878116952e-13
1.707379081e-13
1.552162818e-13
1.411057124e-13
1.282779178e-13
1.166162822e-13
1.060148113e-13
8.44526702e-12
7.677515469e-12
6.979559523e-12
6.345054116e-12
5.768231002e-12
5.243846375e-12
4.767133068e-12
4.333757334e-12
3.939779389e-12
3.58161763e-12
3.256016029e-12
2.960014568e-12
2.690922339e-12
2.446293031e-12
2.223902756e-12
2.021729782e-12
1.837936161e-12
1.670851056e-12
1.518955511e-12
1.380868643e-12
1.255335128e-12
1.141213751e-12
1.037467053e-12
9.431518634e-13
8.57410784e-13
7.794643483e-13
7.086039563e-13
6.441854098e-13
5.856231074e-13
5.323846347e-13
4.839860349e-13
4.399873078e-13
3.999884516e-13
3.636258718e-13
3.305689827e-13
3.005172411e-13
2.731975011e-13
2.483613688e-13
2.257830534e-13
2.052573279e-13
1.865975642e-13
1.696341526e-13
1.542128677e-13
1.401935177e-13
1.2744865e-13
1.158624024e-13
1.053294659e-13
8.390671607e-12
7.627883275e-12
6.934439347e-12
6.304035774e-12
5.7309416e-12
5.209946919e-12
4.73631538e-12
4.305741255e-12
3.914310226e-12
3.558463846e-12
3.234967133e-12
2.940879209e-12
2.673526558e-12
2.430478685e-12
2.209526077e-12
2.008660074e-12
1.826054609e-12
1.660049644e-12
1.509136046e-12
1.371941857e-12
1.247219868e-12
1.133836242e-12
1.030760227e-12
9.370547482e-13
8.518679521e-13
7.744254101e-13
7.040231034e-13
6.400209982e-13
5.818372785e-13
5.289429722e-13
4.808572507e-13
4.371429585e-13
3.974026796e-13
3.612751699e-13
3.28431981e-13
2.985745124e-13
2.71431384e-13
2.467558078e-13
2.243234525e-13
2.03930418e-13
1.853912825e-13
1.685375328e-13
1.532159406e-13
1.392872204e-13
1.266247433e-13
1.151133964e-13
1.046485513e-13
8.336429113e-12
7.578571917e-12
6.889610839e-12
6.263282585e-12
5.693893247e-12
5.176266598e-12
4.705696907e-12
4.277906279e-12
3.889005702e-12
3.535459733e-12
3.214054304e-12
2.921867546e-12
2.656243227e-12
2.414766566e-12
2.195242333e-12
1.995674852e-12
1.814249862e-12
1.649318056e-12
1.499380057e-12
1.363072776e-12
1.239157067e-12
1.126506423e-12
1.024096755e-12
9.309970464e-13
8.463609505e-13
7.694190451e-13
6.994718624e-13
6.358835064e-13
5.780759223e-13
5.255235575e-13
4.777486919e-13
4.343169959e-13
3.948336228e-13
3.589396637e-13
3.263087934e-13
2.96644342e-13
2.696766836e-13
2.451606256e-13
2.228732869e-13
2.026120856e-13
1.841927985e-13
1.674480019e-13
1.522254579e-13
1.383867816e-13
1.258061626e-13
1.143692322e-13
1.039720383e-13
8.282537287e-12
7.529579347e-12
6.84507214e-12
6.222792858e-12
5.657084404e-12
5.142804014e-12
4.675276375e-12
4.25025125e-12
3.863864767e-12
3.512604338e-12
3.193276672e-12
2.902978789e-12
2.639071631e-12
2.399156024e-12
2.181050931e-12
1.982773577e-12
1.80252143e-12
1.638655845e-12
1.489687138e-12
1.354261031e-12
1.23114639e-12
1.11922399e-12
1.017476361e-12
9.249785065e-13
8.408895505e-13
7.644450451e-13
6.949500443e-13
6.317727626e-13
5.743388825e-13
5.221262486e-13
4.746602293e-13
4.315093026e-13
3.922811744e-13
3.56619256e-13
3.241993318e-13
2.947266497e-13
2.679333269e-13
2.435757559e-13
2.214324963e-13
2.013022759e-13
1.830020625e-13
1.663655146e-13
1.512413786e-13
1.37492164e-13
1.249928739e-13
1.136298788e-13
1.032998988e-13
8.228993856e-12
7.480903501e-12
6.80082137e-12
6.182564886e-12
5.620513521e-12
5.109557756e-12
4.645052504e-12
4.222775004e-12
3.838886362e-12
3.489896696e-12
3.172633361e-12
2.884212143e-12
2.622011043e-12
2.383646399e-12
2.166951272e-12
1.969955706e-12
1.790868819e-12
1.628062563e-12
1.480056881e-12
1.345506252e-12
1.223187501e-12
1.111988635e-12
1.010898766e-12
9.189988747e-13
8.354535217e-13
7.595032007e-13
6.904574584e-13
6.276885937e-13
5.706260016e-13
5.187509024e-13
4.715917327e-13
4.287197603e-13
3.897452268e-13
3.543138491e-13
3.221035073e-13
2.928213548e-13
2.662012406e-13
2.420011319e-13
2.2000102e-13
2.000009338e-13
1.818190242e-13
1.652900253e-13
1.50263661e-13
1.366033298e-13
1.241848428e-13
1.128953052e-13
1.026321045e-13
8.175796549e-12
7.432542313e-12
6.756856654e-12
6.142596962e-12
5.584179044e-12
5.076526414e-12
4.615024012e-12
4.195476374e-12
3.814069425e-12
3.467335845e-12
3.152123497e-12
2.865566812e-12
2.605060742e-12
2.368237034e-12
2.152942758e-12
1.957220693e-12
1.779291535e-12
1.617537759e-12
1.470488878e-12
1.336808068e-12
1.21528006e-12
1.104800053e-12
1.004363691e-12
9.130578975e-13
8.300526333e-13
7.545933022e-13
6.859939143e-13
6.236308263e-13
5.669371221e-13
5.153973757e-13
4.68543072e-13
4.259482505e-13
3.872256726e-13
3.520233452e-13
3.20021231e-13
2.909283764e-13
2.644803511e-13
2.404366869e-13
2.185787974e-13
1.987080041e-13
1.806436336e-13
1.642214883e-13
1.492922637e-13
1.357202414e-13
1.233820352e-13
1.121654801e-13
1.019686271e-13
8.122943169e-12
7.384493786e-12
6.713176174e-12
6.102887435e-12
5.548079475e-12
5.043708623e-12
4.585189656e-12
4.168354233e-12
3.789412934e-12
3.444920853e-12
3.131746231e-12
2.847042025e-12
2.588220026e-12
2.352927293e-12
2.139024812e-12
1.944568014e-12
1.7677891e-12
1.607081e-12
1.460982733e-12
1.328166118e-12
1.207423742e-12
1.097657945e-12
9.978708659e-13
9.071553294e-13
8.246866623e-13
7.497151467e-13
6.815592275e-13
6.195992929e-13
5.632720917e-13
5.120655299e-13
4.655141213e-13
4.231946589e-13
3.847224076e-13
3.497476497e-13
3.179524168e-13
2.890476364e-13
2.627705874e-13
2.388823562e-13
2.171657695e-13
1.974234333e-13
1.79475842e-13
1.631598596e-13
1.483271467e-13
1.348428622e-13
1.225844178e-13
1.114403734e-13
1.013094392e-13
8.070431371e-12
7.336755788e-12
6.669777994e-12
6.063434544e-12
5.51221321e-12
5.011102928e-12
4.555548115e-12
4.141407378e-12
3.764915792e-12
3.422650724e-12
3.111500659e-12
2.82863696e-12
2.571488149e-12
2.337716495e-12
2.125196814e-12
1.931997108e-12
1.756361003e-12
1.596691821e-12
1.451538024e-12
1.319580019e-12
1.199618198e-12
1.090561996e-12
9.914200029e-13
9.012909085e-13
8.193553706e-13
7.448685179e-13
6.771532013e-13
6.155938146e-13
5.596307477e-13
5.087552172e-13
4.625047461e-13
4.204588633e-13
3.822353207e-13
3.474866616e-13
3.15896973e-13
2.871790512e-13
2.610718735e-13
2.373380708e-13
2.157618738e-13
1.961471644e-13
1.783155976e-13
1.621050919e-13
1.47368267e-13
1.339711534e-13
1.217919552e-13
1.107199529e-13
1.006545114e-13
8.018259197e-12
7.289326538e-12
6.626660495e-12
6.024236817e-12
5.476578913e-12
4.978708112e-12
4.526098283e-12
4.114634803e-12
3.740577088e-12
3.400524629e-12
3.091386027e-12
2.810350931e-12
2.554864487e-12
2.322604075e-12
2.11145825e-12
1.919507504e-12
1.745006818e-12
1.586369834e-12
1.4421544e-12
1.311049452e-12
1.191863136e-12
1.08351194e-12
9.850108613e-13
8.954644162e-13
8.140585594e-13
7.40053235e-13
6.727756714e-13
6.116142419e-13
5.560129544e-13
5.054663142e-13
4.595148343e-13
4.177407616e-13
3.797643192e-13
3.452402965e-13
3.13854823e-13
2.853225513e-13
2.593841462e-13
2.358037733e-13
2.143670579e-13
1.948791499e-13
1.771628572e-13
1.610571461e-13
1.464155889e-13
1.331050824e-13
1.21004618e-13
1.100041918e-13
1.000038195e-13
7.966424209e-12
7.242203822e-12
6.583821662e-12
5.985292424e-12
5.441174919e-12
4.946522663e-12
4.496838784e-12
4.088035258e-12
3.716395684e-12
3.378541534e-12
3.071401396e-12
2.792183084e-12
2.538348262e-12
2.307589325e-12
2.097808477e-12
1.90709862e-12
1.733726014e-12
1.576114558e-12
1.432831422e-12
1.302574017e-12
1.184158196e-12
1.076507449e-12
9.786431418e-13
8.896755803e-13
8.087959813e-13
7.352690731e-13
6.684264332e-13
6.076603891e-13
5.524185427e-13
5.021986673e-13
4.565442461e-13
4.150402269e-13
3.773092877e-13
3.430084497e-13
3.118258712e-13
2.834780498e-13
2.577073267e-13
2.342793918e-13
2.129812566e-13
1.936193305e-13
1.760175669e-13
1.60015973e-13
1.45469068e-13
1.322446088e-13
1.202223693e-13
1.092930567e-13
9.935733293e-14
7.914924293e-12
7.195385717e-12
6.541259748e-12
5.946599775e-12
5.405999783e-12
4.914545267e-12
4.467768424e-12
4.061607658e-12
3.692370593e-12
3.356700543e-12
3.051545949e-12
2.774132678e-12
2.521938802e-12
2.292671634e-12
2.08424694e-12
1.894769949e-12
1.722518132e-12
1.565925574e-12
1.42356871e-12
1.294153369e-12
1.176503061e-12
1.069548236e-12
9.723165844e-13
8.839241645e-13
8.035674215e-13
7.30515837e-13
6.641053095e-13
6.037320948e-13
5.48847366e-13
4.98952143e-13
4.535928604e-13
4.12357149e-13
3.748701261e-13
3.407910299e-13
3.09810035e-13
2.816454715e-13
2.560413464e-13
2.327648643e-13
2.116044134e-13
1.923676548e-13
1.7487968e-13
1.589815304e-13
1.445286655e-13
1.313896975e-13
1.194451772e-13
1.085865185e-13
9.87150254e-14
7.863757334e-12
7.148870299e-12
6.498973005e-12
5.908157281e-12
5.371052062e-12
4.882774611e-12
4.438886009e-12
4.035350918e-12
3.668500829e-12
3.335000757e-12
3.031818871e-12
2.756198971e-12
2.505635432e-12
2.277850389e-12
2.070773081e-12
1.882520986e-12
1.711382711e-12
1.555802464e-12
1.414365882e-12
1.285787162e-12
1.168897419e-12
1.062634016e-12
9.660309295e-13
8.782099328e-13
7.983726654e-13
7.257933314e-13
6.598121226e-13
5.998291977e-13
5.452992776e-13
4.957266082e-13
4.506605561e-13
4.096914177e-13
3.72446734e-13
3.385879463e-13
3.078072316e-13
2.798247413e-13
2.54386137e-13
2.312601284e-13
2.102364718e-13
1.911240715e-13
1.737491497e-13
1.579537756e-13
1.43594343e-13
1.305403134e-13
1.186730098e-13
1.078845481e-13
9.807687051e-14
7.812921125e-12
7.102655564e-12
6.456959609e-12
5.869963285e-12
5.336330247e-12
4.851209325e-12
4.410190295e-12
4.009263904e-12
3.644785362e-12
3.313441242e-12
3.012219312e-12
2.73838119e-12
2.489437449e-12
2.26312495e-12
2.057386318e-12
1.870351202e-12
1.700319271e-12
1.545744791e-12
1.405222543e-12
1.277475036e-12
1.16134094e-12
1.05576449e-12
9.597859059e-13
8.725326386e-13
7.932114889e-13
7.211013528e-13
6.555466874e-13
5.959515294e-13
5.417741246e-13
4.925219237e-13
4.477472065e-13
4.070429181e-13
3.700390072e-13
3.363991036e-13
3.058173746e-13
2.780157804e-13
2.527416271e-13
2.297651194e-13
2.088773728e-13
1.898885269e-13
1.726259273e-13
1.569326643e-13
1.4266606e-13
1.296964197e-13
1.179058338e-13
1.071871155e-13
9.744284073e-14
7.762413643e-12
7.056739672e-12
6.415217889e-12
5.832016266e-12
5.301832958e-12
4.819848153e-12
4.381680138e-12
3.98334558e-12
3.621223249e-12
3.29202114e-12
2.992746491e-12
2.720678625e-12
2.473344209e-12
2.248494731e-12
2.044086119e-12
1.858260112e-12
1.689327371e-12
1.535752156e-12
1.396138329e-12
1.269216659e-12
1.153833325e-12
1.048939385e-12
9.535812651e-13
8.668920561e-13
7.880836866e-13
7.164397143e-13
6.513088343e-13
5.920989357e-13
5.382717666e-13
4.89337962e-13
4.448526958e-13
4.044115447e-13
3.676468496e-13
3.342244149e-13
3.038403848e-13
2.762185171e-13
2.511077512e-13
2.282797777e-13
2.075270622e-13
1.886609718e-13
1.715099682e-13
1.55918156e-13
1.417437797e-13
1.288579831e-13
1.171436187e-13
1.064941926e-13
9.681291085e-14
7.71223259e-12
7.011120532e-12
6.373745944e-12
5.794314498e-12
5.267558623e-12
4.788689667e-12
4.353354242e-12
3.957594765e-12
3.597813418e-12
3.270739474e-12
2.973399523e-12
2.703090472e-12
2.457354979e-12
2.233959068e-12
2.03087188e-12
1.846247167e-12
1.678406512e-12
1.525824102e-12
1.387112825e-12
1.261011656e-12
1.146374231e-12
1.042158391e-12
9.474167248e-13
8.612879285e-13
7.829890252e-13
7.11808204e-13
6.470983703e-13
5.882712411e-13
5.347920443e-13
4.861745781e-13
4.419768922e-13
4.017971778e-13
3.652701525e-13
3.320637811e-13
3.018761722e-13
2.744328694e-13
2.494844351e-13
2.268040357e-13
2.061854786e-13
1.874413503e-13
1.704012214e-13
1.549102044e-13
1.4082746e-13
1.280249652e-13
1.163863297e-13
1.058057482e-13
9.618705218e-14
7.662375942e-12
6.965796307e-12
6.332542103e-12
5.756856461e-12
5.233505862e-12
4.757732611e-12
4.325211464e-12
3.932010422e-12
3.574554923e-12
3.249595389e-12
2.954177627e-12
2.685616021e-12
2.441469114e-12
2.219517373e-12
2.017743066e-12
1.834311882e-12
1.667556253e-12
1.51596023e-12
1.378145669e-12
1.252859696e-12
1.138963358e-12
1.035421233e-12
9.412920363e-13
8.5572003e-13
7.779272992e-13
7.072066349e-13
6.429151256e-13
5.844682915e-13
5.313348173e-13
4.830316445e-13
4.391196798e-13
3.99199712e-13
3.6290882e-13
3.299171151e-13
2.999246577e-13
2.726587653e-13
2.478716132e-13
2.253378339e-13
2.04852568e-13
1.862296133e-13
1.692996424e-13
1.539087689e-13
1.399170641e-13
1.271973325e-13
1.156339364e-13
1.051217543e-13
9.556523951e-14
7.612841585e-12
6.920765073e-12
6.291604617e-12
5.719640565e-12
5.19967323e-12
4.726975672e-12
4.29725061e-12
3.906591464e-12
3.55144678e-12
3.228587986e-12
2.935079988e-12
2.668254531e-12
2.425685941e-12
2.205169034e-12
2.004699122e-12
1.822453751e-12
1.656776133e-12
1.506160121e-12
1.369236479e-12
1.244760432e-12
1.131600392e-12
1.028727627e-12
9.352069399e-13
8.501881242e-13
7.72898294e-13
7.026348119e-13
6.387589229e-13
5.806899254e-13
5.27899939e-13
4.799090279e-13
4.362809375e-13
3.966190371e-13
3.60562752e-13
3.27784326e-13
2.979857584e-13
2.708961297e-13
2.462692171e-13
2.238811102e-13
2.035282737e-13
1.850257094e-13
1.682051844e-13
1.52913807e-13
1.390125533e-13
1.2637505e-13
1.148864068e-13
1.04442182e-13
9.494744644e-14
7.563627495e-12
6.876024992e-12
6.250931816e-12
5.682665291e-12
5.166059344e-12
4.696417595e-12
4.26947054e-12
3.881336854e-12
3.528488044e-12
3.207716408e-12
2.916105826e-12
2.651005293e-12
2.410004816e-12
2.190913465e-12
1.991739514e-12
1.810672289e-12
1.646065713e-12
1.496423376e-12
1.360384892e-12
1.236713536e-12
1.124285031e-12
1.022077299e-12
9.291611871e-13
8.446919853e-13
7.679018041e-13
6.980925484e-13
6.346295925e-13
5.769359887e-13
5.244872691e-13
4.768066008e-13
4.334605492e-13
3.940550477e-13
3.582318526e-13
3.256653265e-13
2.960593952e-13
2.691448905e-13
2.446771814e-13
2.224338051e-13
2.022125418e-13
1.838295895e-13
1.671178026e-13
1.519252781e-13
1.381138907e-13
1.255580839e-13
1.141437104e-13
1.037670035e-13
9.433364776e-14
7.514731558e-12
6.83157414e-12
6.210521951e-12
5.64592905e-12
5.132662761e-12
4.666057065e-12
4.241870058e-12
3.856245507e-12
3.505677729e-12
3.186979757e-12
2.897254325e-12
2.633867566e-12
2.394425063e-12
2.176750054e-12
1.978863685e-12
1.79896699e-12
1.635424533e-12
1.486749575e-12
1.351590528e-12
1.228718659e-12
1.117016961e-12
1.015469963e-12
9.231545181e-13
8.392313771e-13
7.629376148e-13
6.935796491e-13
6.305269567e-13
5.732063198e-13
5.210966611e-13
4.737242299e-13
4.306583938e-13
3.915076337e-13
3.559160217e-13
3.235600257e-13
2.941454853e-13
2.674049725e-13
2.430954378e-13
2.209958562e-13
2.009053157e-13
1.82641202e-13
1.660374504e-13
1.509431397e-13
1.372210376e-13
1.247463993e-13
1.134058153e-13
1.030961898e-13
9.372381708e-14
7.466151659e-12
6.787410595e-12
6.170373274e-12
5.609430252e-12
5.099482037e-12
4.635892769e-12
4.214447971e-12
3.831316338e-12
3.483014847e-12
3.166377138e-12
2.878524671e-12
2.616840607e-12
2.37894601e-12
2.162678187e-12
1.96607108e-12
1.787337349e-12
1.624852132e-12
1.477138301e-12
1.342853006e-12
1.220775457e-12
1.109795869e-12
1.008905334e-12
9.171866731e-13
8.338060635e-13
7.580055115e-13
6.890959188e-13
6.264508383e-13
5.695007576e-13
5.177279681e-13
4.706617818e-13
4.278743501e-13
3.889766848e-13
3.536151592e-13
3.214683324e-13
2.922439459e-13
2.656763005e-13
2.415239176e-13
2.195672015e-13
1.996065387e-13
1.814604957e-13
1.649640811e-13
1.499673494e-13
1.363339555e-13
1.23939961e-13
1.126726896e-13
1.024297119e-13
9.311792803e-14
7.417885775e-12
6.743532519e-12
6.130484113e-12
5.573167379e-12
5.066515788e-12
4.605923453e-12
4.187203138e-12
3.806548307e-12
3.460498456e-12
3.145907691e-12
2.859916083e-12
2.599923709e-12
2.363567012e-12
2.14869728e-12
1.953361164e-12
1.77578288e-12
1.614348069e-12
1.467589154e-12
1.334171963e-12
1.2128836e-12
1.102621453e-12
1.002383137e-12
9.112574035e-13
8.284158185e-13
7.531052888e-13
6.846411709e-13
6.224010674e-13
5.658191478e-13
5.1438105e-13
4.67619129e-13
4.251083021e-13
3.864620957e-13
3.513291691e-13
3.193901596e-13
2.903546979e-13
2.639588023e-13
2.399625556e-13
2.181477815e-13
1.98316157e-13
1.802874213e-13
1.638976498e-13
1.489978664e-13
1.354526073e-13
1.231387354e-13
1.119443027e-13
1.01767542e-13
9.251595537e-14
7.369932066e-12
6.699938238e-12
6.090852949e-12
5.537139048e-12
5.03376276e-12
4.576147973e-12
4.16013452e-12
3.781940473e-12
3.438127697e-12
3.125570638e-12
2.841427853e-12
2.583116227e-12
2.348287483e-12
2.134806799e-12
1.940733454e-12
1.764303143e-12
1.603911945e-12
1.458101768e-12
1.325547067e-12
1.205042785e-12
1.09549344e-12
9.959031255e-13
9.053664835e-13
8.230604366e-13
7.482367599e-13
6.802152355e-13
6.183774897e-13
5.621613499e-13
5.110557792e-13
4.645961556e-13
4.223601444e-13
3.839637706e-13
3.490579645e-13
3.173254281e-13
2.884776692e-13
2.622524127e-13
2.384112923e-13
2.167375421e-13
1.970341212e-13
1.791219341e-13
1.628381161e-13
1.480346539e-13
1.345769596e-13
1.22342692e-13
1.112206269e-13
1.01109655e-13
9.191787618e-14
7.322288235e-12
6.656625665e-12
6.051477882e-12
5.501343533e-12
5.001221383e-12
4.546564902e-12
4.133240819e-12
3.757491654e-12
3.415901498e-12
3.105365002e-12
2.823059094e-12
2.566417355e-12
2.33310669e-12
2.121006078e-12
1.928187344e-12
1.752897589e-12
1.593543259e-12
1.44867569e-12
1.316977905e-12
1.197252638e-12
1.088411488e-12
9.894649874e-13
8.995136307e-13
8.177396613e-13
7.433996914e-13
6.758179005e-13
6.143799125e-13
5.585271888e-13
5.077519964e-13
4.615927167e-13
4.196297454e-13
3.814815896e-13
3.468014364e-13
3.152740389e-13
2.866127699e-13
2.605570498e-13
2.368700532e-13
2.153364156e-13
1.957603699e-13
1.779639784e-13
1.617854291e-13
1.470776657e-13
1.337069703e-13
1.215517926e-13
1.105016275e-13
1.004560192e-13
9.132366178e-14
7.274952534e-12
6.613593209e-12
6.012357468e-12
5.46577952e-12
4.968890462e-12
4.517173156e-12
4.10652105e-12
3.733200954e-12
3.393819044e-12
3.085290044e-12
2.804809132e-12
2.54982648e-12
2.318024077e-12
2.107294612e-12
1.915722374e-12
1.741565798e-12
1.583241631e-12
1.439310574e-12
1.308464163e-12
1.189512873e-12
1.081375337e-12
9.83068487e-13
8.936986303e-13
8.124532974e-13
7.38593906e-13
6.714490048e-13
6.10408189e-13
5.549165312e-13
5.044695803e-13
4.586087021e-13
4.169170048e-13
3.790154618e-13
3.445595021e-13
3.132359167e-13
2.847599315e-13
2.588726513e-13
2.353387819e-13
2.139443507e-13
1.944948564e-13
1.768135116e-13
1.607395502e-13
1.461268667e-13
1.328426075e-13
1.207660083e-13
1.097872781e-13
9.980661071e-14
9.073329037e-14
7.227922664e-12
6.570838782e-12
5.973489807e-12
5.430445282e-12
4.936768428e-12
4.487971306e-12
4.079973914e-12
3.709067195e-12
3.371879263e-12
3.065344788e-12
2.786677081e-12
2.533342798e-12
2.303038911e-12
2.093671733e-12
1.903337939e-12
1.730307221e-12
1.573006561e-12
1.430005965e-12
1.300005428e-12
1.181823113e-12
1.074384647e-12
9.767133139e-13
8.879212001e-13
8.072010882e-13
7.338191703e-13
6.67108336e-13
6.064621265e-13
5.513292016e-13
5.012083715e-13
4.55643967e-13
4.14221791e-13
3.765652674e-13
3.423320527e-13
3.112109627e-13
2.829190642e-13
2.571991357e-13
2.338174039e-13
2.125612799e-13
1.932375193e-13
1.756704778e-13
1.597004286e-13
1.451822107e-13
1.319838294e-13
1.199853008e-13
1.090775441e-13
9.916139799e-14
9.01467333e-14
7.181196878e-12
6.528360794e-12
5.934873455e-12
5.395339508e-12
4.904854087e-12
4.45895827e-12
4.053598426e-12
3.685089478e-12
3.350081339e-12
3.045528494e-12
2.768662268e-12
2.516965695e-12
2.288150635e-12
2.080136938e-12
1.89103358e-12
1.71912144e-12
1.562837669e-12
1.420761517e-12
1.291601384e-12
1.174183074e-12
1.067439156e-12
9.703992317e-13
8.821811254e-13
8.019828385e-13
7.29075307e-13
6.627957329e-13
6.025415782e-13
5.477650669e-13
4.97968249e-13
4.526984011e-13
4.115440038e-13
3.741309154e-13
3.401190055e-13
3.091991016e-13
2.810900994e-13
2.555364405e-13
2.323058628e-13
2.111871516e-13
1.919883118e-13
1.745348346e-13
1.586680258e-13
1.442436626e-13
1.311306038e-13
1.192096413e-13
1.08372399e-13
9.852035706e-14
8.956396877e-14
7.134773245e-12
6.486157492e-12
5.896506816e-12
5.360460745e-12
4.873146121e-12
4.430132846e-12
4.027393496e-12
3.661266814e-12
3.328424372e-12
3.025840341e-12
2.750763947e-12
2.500694495e-12
2.273358635e-12
2.066689665e-12
1.878808786e-12
1.708007991e-12
1.552734534e-12
1.411576849e-12
1.283251686e-12
1.166592439e-12
1.060538579e-12
9.641259798e-13
8.764781691e-13
7.967983327e-13
7.243621199e-13
6.585110174e-13
5.986463823e-13
5.442239797e-13
4.947490788e-13
4.497718827e-13
4.088835326e-13
3.717123052e-13
3.37920269e-13
3.072002501e-13
2.792729617e-13
2.538844973e-13
2.308040962e-13
2.098219091e-13
1.907471824e-13
1.734065351e-13
1.57642299e-13
1.433111837e-13
1.302828957e-13
1.184389975e-13
1.076718138e-13
9.788346143e-14
8.89849727e-14
7.088649651e-12
6.444226952e-12
5.858388143e-12
5.325807406e-12
4.841643086e-12
4.401493723e-12
4.001357929e-12
3.637598117e-12
3.306907375e-12
3.006279435e-12
2.732981305e-12
2.484528456e-12
2.258662237e-12
2.053329302e-12
1.866663002e-12
1.696966369e-12
1.542696696e-12
1.402451542e-12
1.274955952e-12
1.159050862e-12
1.053682601e-12
9.578932721e-13
8.708120712e-13
7.916473346e-13
7.196793944e-13
6.542539942e-13
5.947763612e-13
5.407057787e-13
4.915507142e-13
4.468642786e-13
4.062402561e-13
3.693093265e-13
3.35735743e-13
3.052143174e-13
2.774675683e-13
2.522432306e-13
2.293120355e-13
2.084654903e-13
1.895140744e-13
1.722855278e-13
1.566232015e-13
1.423847314e-13
1.294406663e-13
1.176733344e-13
1.069757565e-13
9.72506821e-14
8.840971871e-14
7.042824163e-12
6.402567418e-12
5.820515839e-12
5.291378039e-12
4.810343661e-12
4.373039701e-12
3.975490636e-12
3.614082397e-12
3.285529447e-12
2.986844955e-12
2.715313596e-12
2.468466903e-12
2.244060824e-12
2.040055291e-12
1.854595719e-12
1.685996112e-12
1.532723735e-12
1.393385213e-12
1.266713835e-12
1.151558029e-12
1.046870934e-12
9.517008479e-13
8.651825945e-13
7.865296286e-13
7.150269344e-13
6.500244851e-13
5.909313529e-13
5.372103166e-13
4.883730214e-13
4.43975467e-13
4.036140637e-13
3.669218789e-13
3.335653361e-13
3.032412202e-13
2.756738435e-13
2.506125718e-13
2.278296184e-13
2.071178384e-13
1.882889363e-13
1.711717659e-13
1.556106907e-13
1.41464267e-13
1.286038805e-13
1.1691262e-13
1.062841979e-13
9.662199256e-14
8.783818271e-14
6.997295128e-12
6.361177386e-12
5.782888537e-12
5.257171401e-12
4.779246718e-12
4.344769752e-12
3.949790683e-12
3.590718803e-12
3.264289816e-12
2.9675362e-12
2.697760182e-12
2.452509254e-12
2.22955387e-12
2.026867151e-12
1.842606501e-12
1.675096823e-12
1.52281529e-12
1.384377536e-12
1.258525038e-12
1.144113668e-12
1.040103333e-12
9.455484834e-13
8.595895359e-13
7.814450298e-13
7.104045719e-13
6.458223374e-13
5.871112186e-13
5.337374673e-13
4.852158856e-13
4.411053436e-13
4.010048606e-13
3.64549876e-13
3.314089699e-13
3.012808873e-13
2.738917226e-13
2.48992462e-13
2.263567912e-13
2.057789046e-13
1.870717238e-13
1.70065209e-13
1.546047299e-13
1.405497572e-13
1.27772508e-13
1.161568268e-13
1.055971132e-13
9.59973701e-14
8.727034407e-14
6.952060155e-12
6.320054682e-12
5.745504262e-12
5.223185696e-12
4.748350622e-12
4.316682392e-12
3.924256719e-12
3.567506109e-12
3.243187367e-12
2.948352155e-12
2.680320141e-12
2.436654671e-12
2.215140614e-12
2.013764191e-12
1.830694719e-12
1.66426793e-12
1.512970842e-12
1.375428038e-12
1.25038913e-12
1.136717388e-12
1.033379443e-12
9.394358556e-13
8.540326015e-13
7.763932713e-13
7.058120641e-13
6.416473304e-13
5.833157576e-13
5.302870483e-13
4.82079141e-13
4.382537576e-13
3.984125097e-13
3.621931934e-13
3.292665312e-13
2.993332157e-13
2.72121112e-13
2.473828161e-13
2.248934767e-13
2.044486186e-13
1.85862373e-13
1.689657991e-13
1.536052664e-13
1.396411541e-13
1.269465051e-13
1.154059151e-13
1.049144662e-13
9.537678194e-14
8.670617296e-14
6.907117863e-12
6.279198054e-12
5.708361872e-12
5.189419887e-12
4.717654432e-12
4.288776765e-12
3.898887967e-12
3.544443607e-12
3.222221456e-12
2.929292236e-12
2.662992943e-12
2.420902672e-12
2.200820615e-12
2.00074601e-12
1.818860009e-12
1.653509102e-12
1.50319009e-12
1.366536445e-12
1.242305864e-12
1.129368965e-12
1.026699057e-12
9.333627781e-13
8.485116219e-13
7.71374199e-13
7.012492711e-13
6.374993367e-13
5.795448543e-13
5.268589543e-13
4.789626919e-13
4.354206222e-13
3.95836932e-13
3.598517591e-13
3.271379546e-13
2.97398146e-13
2.703619577e-13
2.45783585e-13
2.234396302e-13
2.0312694e-13
1.84660847e-13
1.678735027e-13
1.526122698e-13
1.387384298e-13
1.261258466e-13
1.146598619e-13
1.042362361e-13
9.476020915e-14
8.614565219e-14
6.862465955e-12
6.23860541e-12
5.671459468e-12
5.155872247e-12
4.687156578e-12
4.261051443e-12
3.873683129e-12
3.521530118e-12
3.201391011e-12
2.910355468e-12
2.645777699e-12
2.405252451e-12
2.186593141e-12
1.987811943e-12
1.807101766e-12
1.642819791e-12
1.493472534e-12
1.357702303e-12
1.234274826e-12
1.122068021e-12
1.020061836e-12
9.273289402e-13
8.430263147e-13
7.663875561e-13
6.967159594e-13
6.333781443e-13
5.757983157e-13
5.234530102e-13
4.75866379e-13
4.326057923e-13
3.932779957e-13
3.575254534e-13
3.250231313e-13
2.954755793e-13
2.686141698e-13
2.441946869e-13
2.219951774e-13
2.01813801e-13
1.834670844e-13
1.66788264e-13
1.516256891e-13
1.378415382e-13
1.253104907e-13
1.139186292e-13
1.035623882e-13
9.414762019e-14
8.558875309e-14
6.818102683e-12
6.198275163e-12
5.634795607e-12
5.122541464e-12
4.656855867e-12
4.233505341e-12
3.848641219e-12
3.498764744e-12
3.180695217e-12
2.89154111e-12
2.628673737e-12
2.389703395e-12
2.172457635e-12
1.974961483e-12
1.79541953e-12
1.632199576e-12
1.483817793e-12
1.348925266e-12
1.226295701e-12
1.114814271e-12
1.013467518e-12
9.21334106e-13
8.375764654e-13
7.614331476e-13
6.922119517e-13
6.292835918e-13
5.720759952e-13
5.200690825e-13
4.727900811e-13
4.298091579e-13
3.907356008e-13
3.552141852e-13
3.229219785e-13
2.935654404e-13
2.668776798e-13
2.426160597e-13
2.205600617e-13
2.005091504e-13
1.822810384e-13
1.657100403e-13
1.506454858e-13
1.369504443e-13
1.245004053e-13
1.13182188e-13
1.028928961e-13
9.353899109e-14
8.503545386e-14
6.7740263e-12
6.158205724e-12
5.598368844e-12
5.089426226e-12
4.626751104e-12
4.206137375e-12
3.82376125e-12
3.476146591e-12
3.16013326e-12
2.872848421e-12
2.611680383e-12
2.374254891e-12
2.158413541e-12
1.962194125e-12
1.783812841e-12
1.62164804e-12
1.474225488e-12
1.340204989e-12
1.218368177e-12
1.107607431e-12
1.006915845e-12
9.153780392e-13
8.321618592e-13
7.565107784e-13
6.877370706e-13
6.25215518e-13
5.683777464e-13
5.167070381e-13
4.697336771e-13
4.270306088e-13
3.88209647e-13
3.529178636e-13
3.208344134e-13
2.916676539e-13
2.651524194e-13
2.410476413e-13
2.191342267e-13
1.992129367e-13
1.811026624e-13
1.646387893e-13
1.496716213e-13
1.360651129e-13
1.236955586e-13
1.124505091e-13
1.022277336e-13
9.293429788e-14
8.448573271e-14
6.730234783e-12
6.118395254e-12
5.562177508e-12
5.056525011e-12
4.596840909e-12
4.178946289e-12
3.79904208e-12
3.453674618e-12
3.139704194e-12
2.854276543e-12
2.594796858e-12