/*--------------------------------*- C++ -*----------------------------------*\
  =========                 |
  \\      /  F ield         | OpenFOAM: The Open Source CFD Toolbox
   \\    /   O peration     | Website:  https://openfoam.org
    \\  /    A nd           | Version:  7
     \\/     M anipulation  |
\*---------------------------------------------------------------------------*/
FoamFile
{
    version     2.0;
    format      ascii;
    class       volScalarField;
    location    "constant";
    object      Cz;
}
// * * * * * * * * * * * * * * * * * * * * * * * * * * * * * * * * * * * * * //

dimensions      [0 1 0 0 0 0 0];

internalField   nonuniform List<scalar> 
22090
(
4.710483638e-05
4.710483638e-05
4.710483638e-05
4.710483638e-05
4.710483638e-05
4.710483638e-05
4.710483638e-05
4.710483638e-05
4.710483638e-05
4.710483638e-05
4.710483638e-05
4.710483638e-05
4.710483638e-05
4.710483638e-05
4.710483638e-05
4.710483638e-05
4.710483638e-05
4.710483638e-05
4.710483638e-05
4.710483638e-05
4.710483638e-05
4.710483638e-05
4.710483638e-05
4.710483638e-05
4.710483638e-05
4.710483638e-05
4.710483638e-05
4.710483638e-05
4.710483638e-05
4.710483638e-05
4.710483638e-05
4.710483638e-05
4.710483638e-05
4.710483638e-05
4.710483638e-05
4.710483638e-05
4.710483638e-05
4.710483638e-05
4.710483638e-05
4.710483638e-05
4.710483638e-05
4.710483638e-05
4.710483638e-05
4.710483638e-05
4.710483638e-05
4.710483638e-05
4.710483638e-05
0.0001408762193
0.0001408762193
0.0001408762193
0.0001408762193
0.0001408762193
0.0001408762193
0.0001408762193
0.0001408762193
0.0001408762193
0.0001408762193
0.0001408762193
0.0001408762193
0.0001408762193
0.0001408762193
0.0001408762193
0.0001408762193
0.0001408762193
0.0001408762193
0.0001408762193
0.0001408762193
0.0001408762193
0.0001408762193
0.0001408762193
0.0001408762193
0.0001408762193
0.0001408762193
0.0001408762193
0.0001408762193
0.0001408762193
0.0001408762193
0.0001408762193
0.0001408762193
0.0001408762193
0.0001408762193
0.0001408762193
0.0001408762193
0.0001408762193
0.0001408762193
0.0001408762193
0.0001408762193
0.0001408762193
0.0001408762193
0.0001408762193
0.0001408762193
0.0001408762193
0.0001408762193
0.0001408762193
0.0002337751005
0.0002337751005
0.0002337751005
0.0002337751005
0.0002337751005
0.0002337751005
0.0002337751005
0.0002337751005
0.0002337751005
0.0002337751005
0.0002337751005
0.0002337751005
0.0002337751005
0.0002337751005
0.0002337751005
0.0002337751005
0.0002337751005
0.0002337751005
0.0002337751005
0.0002337751005
0.0002337751005
0.0002337751005
0.0002337751005
0.0002337751005
0.0002337751005
0.0002337751005
0.0002337751005
0.0002337751005
0.0002337751005
0.0002337751005
0.0002337751005
0.0002337751005
0.0002337751005
0.0002337751005
0.0002337751005
0.0002337751005
0.0002337751005
0.0002337751005
0.0002337751005
0.0002337751005
0.0002337751005
0.0002337751005
0.0002337751005
0.0002337751005
0.0002337751005
0.0002337751005
0.0002337751005
0.0003258095983
0.0003258095983
0.0003258095983
0.0003258095983
0.0003258095983
0.0003258095983
0.0003258095983
0.0003258095983
0.0003258095983
0.0003258095983
0.0003258095983
0.0003258095983
0.0003258095983
0.0003258095983
0.0003258095983
0.0003258095983
0.0003258095983
0.0003258095983
0.0003258095983
0.0003258095983
0.0003258095983
0.0003258095983
0.0003258095983
0.0003258095983
0.0003258095983
0.0003258095983
0.0003258095983
0.0003258095983
0.0003258095983
0.0003258095983
0.0003258095983
0.0003258095983
0.0003258095983
0.0003258095983
0.0003258095983
0.0003258095983
0.0003258095983
0.0003258095983
0.0003258095983
0.0003258095983
0.0003258095983
0.0003258095983
0.0003258095983
0.0003258095983
0.0003258095983
0.0003258095983
0.0003258095983
0.0004169877554
0.0004169877554
0.0004169877554
0.0004169877554
0.0004169877554
0.0004169877554
0.0004169877554
0.0004169877554
0.0004169877554
0.0004169877554
0.0004169877554
0.0004169877554
0.0004169877554
0.0004169877554
0.0004169877554
0.0004169877554
0.0004169877554
0.0004169877554
0.0004169877554
0.0004169877554
0.0004169877554
0.0004169877554
0.0004169877554
0.0004169877554
0.0004169877554
0.0004169877554
0.0004169877554
0.0004169877554
0.0004169877554
0.0004169877554
0.0004169877554
0.0004169877554
0.0004169877554
0.0004169877554
0.0004169877554
0.0004169877554
0.0004169877554
0.0004169877554
0.0004169877554
0.0004169877554
0.0004169877554
0.0004169877554
0.0004169877554
0.0004169877554
0.0004169877554
0.0004169877554
0.0004169877554
0.0005073175397
0.0005073175397
0.0005073175397
0.0005073175397
0.0005073175397
0.0005073175397
0.0005073175397
0.0005073175397
0.0005073175397
0.0005073175397
0.0005073175397
0.0005073175397
0.0005073175397
0.0005073175397
0.0005073175397
0.0005073175397
0.0005073175397
0.0005073175397
0.0005073175397
0.0005073175397
0.0005073175397
0.0005073175397
0.0005073175397
0.0005073175397
0.0005073175397
0.0005073175397
0.0005073175397
0.0005073175397
0.0005073175397
0.0005073175397
0.0005073175397
0.0005073175397
0.0005073175397
0.0005073175397
0.0005073175397
0.0005073175397
0.0005073175397
0.0005073175397
0.0005073175397
0.0005073175397
0.0005073175397
0.0005073175397
0.0005073175397
0.0005073175397
0.0005073175397
0.0005073175397
0.0005073175397
0.0005968068449
0.0005968068449
0.0005968068449
0.0005968068449
0.0005968068449
0.0005968068449
0.0005968068449
0.0005968068449
0.0005968068449
0.0005968068449
0.0005968068449
0.0005968068449
0.0005968068449
0.0005968068449
0.0005968068449
0.0005968068449
0.0005968068449
0.0005968068449
0.0005968068449
0.0005968068449
0.0005968068449
0.0005968068449
0.0005968068449
0.0005968068449
0.0005968068449
0.0005968068449
0.0005968068449
0.0005968068449
0.0005968068449
0.0005968068449
0.0005968068449
0.0005968068449
0.0005968068449
0.0005968068449
0.0005968068449
0.0005968068449
0.0005968068449
0.0005968068449
0.0005968068449
0.0005968068449
0.0005968068449
0.0005968068449
0.0005968068449
0.0005968068449
0.0005968068449
0.0005968068449
0.0005968068449
0.0006854634912
0.0006854634913
0.0006854634913
0.0006854634912
0.0006854634912
0.0006854634913
0.0006854634913
0.0006854634913
0.0006854634912
0.0006854634912
0.0006854634913
0.0006854634912
0.0006854634912
0.0006854634912
0.0006854634912
0.0006854634913
0.0006854634912
0.0006854634913
0.0006854634912
0.0006854634912
0.0006854634912
0.0006854634913
0.0006854634912
0.0006854634913
0.0006854634912
0.0006854634912
0.0006854634912
0.0006854634912
0.0006854634912
0.0006854634912
0.0006854634912
0.0006854634912
0.0006854634912
0.0006854634912
0.0006854634912
0.0006854634912
0.0006854634912
0.0006854634913
0.0006854634912
0.0006854634912
0.0006854634912
0.0006854634912
0.0006854634912
0.0006854634912
0.0006854634912
0.0006854634912
0.0006854634912
0.0007732952263
0.0007732952263
0.0007732952263
0.0007732952264
0.0007732952263
0.0007732952263
0.0007732952264
0.0007732952264
0.0007732952263
0.0007732952264
0.0007732952264
0.0007732952263
0.0007732952263
0.0007732952264
0.0007732952264
0.0007732952263
0.0007732952263
0.0007732952264
0.0007732952264
0.0007732952263
0.0007732952263
0.0007732952263
0.0007732952264
0.0007732952263
0.0007732952263
0.0007732952263
0.0007732952263
0.0007732952263
0.0007732952263
0.0007732952264
0.0007732952263
0.0007732952263
0.0007732952263
0.0007732952263
0.0007732952263
0.0007732952264
0.0007732952264
0.0007732952264
0.0007732952263
0.0007732952263
0.0007732952263
0.0007732952263
0.0007732952264
0.0007732952263
0.0007732952263
0.0007732952263
0.0007732952263
0.0008603097256
0.0008603097257
0.0008603097256
0.0008603097257
0.0008603097256
0.0008603097257
0.0008603097256
0.0008603097256
0.0008603097257
0.0008603097257
0.0008603097257
0.0008603097256
0.0008603097256
0.0008603097256
0.0008603097257
0.0008603097256
0.0008603097256
0.0008603097257
0.0008603097256
0.0008603097257
0.0008603097256
0.0008603097256
0.0008603097257
0.0008603097257
0.0008603097256
0.0008603097256
0.0008603097256
0.0008603097256
0.0008603097256
0.0008603097257
0.0008603097256
0.0008603097256
0.0008603097256
0.0008603097256
0.0008603097257
0.0008603097256
0.0008603097257
0.0008603097257
0.0008603097257
0.0008603097257
0.0008603097257
0.0008603097256
0.0008603097256
0.0008603097257
0.0008603097256
0.0008603097257
0.0008603097256
0.0009465145931
0.0009465145931
0.0009465145931
0.0009465145931
0.0009465145932
0.0009465145932
0.0009465145932
0.0009465145931
0.0009465145931
0.0009465145932
0.0009465145931
0.0009465145932
0.0009465145932
0.0009465145931
0.0009465145931
0.0009465145931
0.0009465145932
0.0009465145931
0.0009465145932
0.0009465145932
0.0009465145931
0.0009465145932
0.0009465145932
0.0009465145932
0.0009465145932
0.0009465145931
0.0009465145932
0.0009465145932
0.0009465145932
0.0009465145932
0.0009465145932
0.0009465145932
0.0009465145932
0.0009465145932
0.0009465145931
0.0009465145932
0.0009465145931
0.0009465145932
0.0009465145931
0.0009465145931
0.0009465145932
0.0009465145931
0.0009465145931
0.0009465145931
0.0009465145931
0.0009465145931
0.0009465145931
0.001031917362
0.001031917362
0.001031917362
0.001031917362
0.001031917362
0.001031917362
0.001031917362
0.001031917362
0.001031917362
0.001031917362
0.001031917362
0.001031917362
0.001031917362
0.001031917362
0.001031917362
0.001031917362
0.001031917362
0.001031917362
0.001031917362
0.001031917362
0.001031917362
0.001031917362
0.001031917362
0.001031917362
0.001031917362
0.001031917362
0.001031917362
0.001031917362
0.001031917362
0.001031917362
0.001031917362
0.001031917362
0.001031917362
0.001031917362
0.001031917362
0.001031917362
0.001031917362
0.001031917362
0.001031917362
0.001031917362
0.001031917362
0.001031917362
0.001031917362
0.001031917362
0.001031917362
0.001031917362
0.001031917362
0.001116525496
0.001116525495
0.001116525496
0.001116525495
0.001116525495
0.001116525495
0.001116525496
0.001116525496
0.001116525495
0.001116525496
0.001116525496
0.001116525495
0.001116525496
0.001116525496
0.001116525496
0.001116525496
0.001116525495
0.001116525496
0.001116525495
0.001116525495
0.001116525495
0.001116525495
0.001116525496
0.001116525496
0.001116525496
0.001116525495
0.001116525495
0.001116525495
0.001116525495
0.001116525495
0.001116525495
0.001116525495
0.001116525495
0.001116525496
0.001116525496
0.001116525496
0.001116525496
0.001116525495
0.001116525496
0.001116525495
0.001116525496
0.001116525495
0.001116525496
0.001116525495
0.001116525495
0.001116525495
0.001116525495
0.001200346388
0.001200346388
0.001200346387
0.001200346387
0.001200346387
0.001200346387
0.001200346387
0.001200346387
0.001200346387
0.001200346388
0.001200346387
0.001200346388
0.001200346388
0.001200346387
0.001200346388
0.001200346387
0.001200346387
0.001200346388
0.001200346387
0.001200346387
0.001200346388
0.001200346388
0.001200346387
0.001200346387
0.001200346388
0.001200346387
0.001200346388
0.001200346388
0.001200346387
0.001200346387
0.001200346388
0.001200346387
0.001200346388
0.001200346387
0.001200346388
0.001200346387
0.001200346387
0.001200346387
0.001200346387
0.001200346388
0.001200346388
0.001200346387
0.001200346387
0.001200346387
0.001200346387
0.001200346387
0.001200346387
0.001283387362
0.001283387363
0.001283387363
0.001283387362
0.001283387363
0.001283387363
0.001283387363
0.001283387362
0.001283387363
0.001283387363
0.001283387363
0.001283387362
0.001283387363
0.001283387362
0.001283387362
0.001283387362
0.001283387362
0.001283387362
0.001283387362
0.001283387362
0.001283387362
0.001283387362
0.001283387363
0.001283387363
0.001283387363
0.001283387362
0.001283387362
0.001283387362
0.001283387362
0.001283387363
0.001283387363
0.001283387363
0.001283387362
0.001283387363
0.001283387362
0.001283387363
0.001283387362
0.001283387362
0.001283387363
0.001283387363
0.001283387363
0.001283387363
0.001283387362
0.001283387363
0.001283387363
0.001283387362
0.001283387362
0.001365655678
0.001365655678
0.001365655678
0.001365655678
0.001365655678
0.001365655678
0.001365655678
0.001365655678
0.001365655678
0.001365655678
0.001365655678
0.001365655678
0.001365655678
0.001365655678
0.001365655678
0.001365655678
0.001365655678
0.001365655678
0.001365655678
0.001365655678
0.001365655678
0.001365655678
0.001365655678
0.001365655678
0.001365655678
0.001365655678
0.001365655678
0.001365655678
0.001365655678
0.001365655678
0.001365655678
0.001365655678
0.001365655678
0.001365655678
0.001365655678
0.001365655678
0.001365655678
0.001365655678
0.001365655678
0.001365655678
0.001365655678
0.001365655678
0.001365655678
0.001365655678
0.001365655678
0.001365655678
0.001365655678
0.001447158523
0.001447158523
0.001447158523
0.001447158523
0.001447158523
0.001447158523
0.001447158523
0.001447158523
0.001447158523
0.001447158523
0.001447158523
0.001447158523
0.001447158523
0.001447158523
0.001447158523
0.001447158523
0.001447158523
0.001447158523
0.001447158523
0.001447158523
0.001447158523
0.001447158523
0.001447158523
0.001447158523
0.001447158523
0.001447158523
0.001447158523
0.001447158523
0.001447158523
0.001447158523
0.001447158523
0.001447158523
0.001447158523
0.001447158523
0.001447158523
0.001447158523
0.001447158523
0.001447158523
0.001447158523
0.001447158523
0.001447158523
0.001447158523
0.001447158523
0.001447158523
0.001447158523
0.001447158523
0.001447158523
0.001527903019
0.001527903019
0.001527903019
0.001527903019
0.001527903019
0.001527903019
0.001527903019
0.001527903019
0.001527903019
0.001527903019
0.001527903019
0.001527903019
0.001527903019
0.001527903019
0.001527903019
0.001527903019
0.001527903019
0.001527903019
0.001527903019
0.001527903019
0.001527903019
0.001527903019
0.001527903019
0.001527903019
0.001527903019
0.001527903019
0.001527903019
0.001527903019
0.001527903019
0.001527903019
0.001527903019
0.001527903019
0.001527903019
0.001527903019
0.001527903019
0.001527903019
0.001527903019
0.001527903019
0.001527903019
0.001527903019
0.001527903019
0.001527903019
0.001527903019
0.001527903019
0.001527903019
0.001527903019
0.001527903019
0.001607896223
0.001607896223
0.001607896223
0.001607896223
0.001607896223
0.001607896223
0.001607896223
0.001607896223
0.001607896223
0.001607896223
0.001607896223
0.001607896223
0.001607896223
0.001607896223
0.001607896223
0.001607896223
0.001607896223
0.001607896223
0.001607896223
0.001607896223
0.001607896223
0.001607896223
0.001607896223
0.001607896223
0.001607896223
0.001607896223
0.001607896223
0.001607896223
0.001607896223
0.001607896223
0.001607896223
0.001607896223
0.001607896223
0.001607896223
0.001607896223
0.001607896223
0.001607896223
0.001607896223
0.001607896223
0.001607896223
0.001607896223
0.001607896223
0.001607896223
0.001607896223
0.001607896223
0.001607896223
0.001607896223
0.001687145125
0.001687145125
0.001687145126
0.001687145125
0.001687145125
0.001687145125
0.001687145125
0.001687145125
0.001687145125
0.001687145125
0.001687145126
0.001687145126
0.001687145126
0.001687145125
0.001687145125
0.001687145125
0.001687145125
0.001687145125
0.001687145126
0.001687145126
0.001687145125
0.001687145125
0.001687145126
0.001687145126
0.001687145125
0.001687145125
0.001687145125
0.001687145126
0.001687145125
0.001687145126
0.001687145125
0.001687145125
0.001687145126
0.001687145125
0.001687145125
0.001687145125
0.001687145126
0.001687145126
0.001687145126
0.001687145126
0.001687145125
0.001687145126
0.001687145125
0.001687145126
0.001687145126
0.001687145125
0.001687145125
0.001765656651
0.001765656651
0.001765656651
0.001765656651
0.001765656651
0.001765656651
0.001765656652
0.001765656651
0.001765656651
0.001765656651
0.001765656652
0.001765656651
0.001765656651
0.001765656652
0.001765656651
0.001765656651
0.001765656651
0.001765656651
0.001765656651
0.001765656651
0.001765656651
0.001765656652
0.001765656651
0.001765656652
0.001765656652
0.001765656651
0.001765656651
0.001765656651
0.001765656651
0.001765656652
0.001765656651
0.001765656651
0.001765656652
0.001765656651
0.001765656651
0.001765656651
0.001765656651
0.001765656651
0.001765656651
0.001765656651
0.001765656651
0.001765656651
0.001765656651
0.001765656651
0.001765656651
0.001765656652
0.001765656651
0.001843437662
0.001843437663
0.001843437662
0.001843437662
0.001843437663
0.001843437662
0.001843437663
0.001843437662
0.001843437663
0.001843437662
0.001843437662
0.001843437662
0.001843437662
0.001843437663
0.001843437663
0.001843437663
0.001843437663
0.001843437663
0.001843437662
0.001843437662
0.001843437663
0.001843437663
0.001843437662
0.001843437663
0.001843437663
0.001843437662
0.001843437662
0.001843437662
0.001843437662
0.001843437662
0.001843437662
0.001843437662
0.001843437662
0.001843437662
0.001843437662
0.001843437662
0.001843437662
0.001843437663
0.001843437662
0.001843437663
0.001843437663
0.001843437662
0.001843437662
0.001843437662
0.001843437663
0.001843437662
0.001843437663
0.001920494955
0.001920494955
0.001920494955
0.001920494955
0.001920494955
0.001920494955
0.001920494955
0.001920494955
0.001920494955
0.001920494955
0.001920494955
0.001920494955
0.001920494955
0.001920494955
0.001920494955
0.001920494955
0.001920494955
0.001920494955
0.001920494955
0.001920494955
0.001920494955
0.001920494955
0.001920494955
0.001920494955
0.001920494955
0.001920494955
0.001920494955
0.001920494955
0.001920494955
0.001920494955
0.001920494955
0.001920494955
0.001920494955
0.001920494955
0.001920494955
0.001920494955
0.001920494955
0.001920494955
0.001920494955
0.001920494955
0.001920494955
0.001920494955
0.001920494955
0.001920494955
0.001920494955
0.001920494955
0.001920494955
0.001996835263
0.001996835263
0.001996835263
0.001996835263
0.001996835263
0.001996835263
0.001996835263
0.001996835263
0.001996835263
0.001996835263
0.001996835263
0.001996835263
0.001996835263
0.001996835263
0.001996835263
0.001996835263
0.001996835263
0.001996835263
0.001996835263
0.001996835263
0.001996835263
0.001996835263
0.001996835263
0.001996835263
0.001996835263
0.001996835263
0.001996835263
0.001996835263
0.001996835263
0.001996835263
0.001996835263
0.001996835263
0.001996835263
0.001996835263
0.001996835263
0.001996835263
0.001996835263
0.001996835263
0.001996835263
0.001996835263
0.001996835263
0.001996835263
0.001996835263
0.001996835263
0.001996835263
0.001996835263
0.001996835263
0.002072465258
0.002072465258
0.002072465258
0.002072465258
0.002072465258
0.002072465258
0.002072465258
0.002072465258
0.002072465258
0.002072465258
0.002072465258
0.002072465258
0.002072465258
0.002072465258
0.002072465258
0.002072465258
0.002072465258
0.002072465258
0.002072465258
0.002072465258
0.002072465258
0.002072465258
0.002072465258
0.002072465258
0.002072465258
0.002072465258
0.002072465258
0.002072465258
0.002072465258
0.002072465258
0.002072465258
0.002072465258
0.002072465258
0.002072465258
0.002072465258
0.002072465258
0.002072465258
0.002072465258
0.002072465258
0.002072465258
0.002072465258
0.002072465258
0.002072465258
0.002072465258
0.002072465258
0.002072465258
0.002072465258
0.002147391549
0.002147391549
0.002147391549
0.002147391549
0.002147391549
0.002147391549
0.002147391549
0.002147391549
0.002147391549
0.002147391549
0.002147391549
0.002147391549
0.002147391549
0.002147391549
0.002147391549
0.002147391549
0.002147391549
0.002147391549
0.002147391549
0.002147391549
0.002147391549
0.002147391549
0.002147391549
0.002147391549
0.002147391549
0.002147391549
0.002147391549
0.002147391549
0.002147391549
0.002147391549
0.002147391549
0.002147391549
0.002147391549
0.002147391549
0.002147391549
0.002147391549
0.002147391549
0.002147391549
0.002147391549
0.002147391549
0.002147391549
0.002147391549
0.002147391549
0.002147391549
0.002147391549
0.002147391549
0.002147391549
0.002221620684
0.002221620684
0.002221620684
0.002221620684
0.002221620684
0.002221620684
0.002221620684
0.002221620684
0.002221620684
0.002221620684
0.002221620684
0.002221620684
0.002221620684
0.002221620684
0.002221620684
0.002221620684
0.002221620684
0.002221620684
0.002221620684
0.002221620684
0.002221620684
0.002221620684
0.002221620684
0.002221620684
0.002221620684
0.002221620684
0.002221620684
0.002221620684
0.002221620684
0.002221620684
0.002221620684
0.002221620684
0.002221620684
0.002221620684
0.002221620684
0.002221620684
0.002221620684
0.002221620684
0.002221620684
0.002221620684
0.002221620684
0.002221620684
0.002221620684
0.002221620684
0.002221620684
0.002221620684
0.002221620684
0.002295159149
0.002295159149
0.002295159149
0.002295159149
0.002295159149
0.002295159149
0.002295159149
0.002295159149
0.002295159149
0.002295159149
0.002295159149
0.002295159149
0.002295159149
0.002295159149
0.002295159149
0.002295159149
0.002295159149
0.002295159149
0.002295159149
0.002295159149
0.002295159149
0.002295159149
0.002295159149
0.002295159149
0.002295159149
0.002295159149
0.002295159149
0.002295159149
0.002295159149
0.002295159149
0.002295159149
0.002295159149
0.002295159149
0.002295159149
0.002295159149
0.002295159149
0.002295159149
0.002295159149
0.002295159149
0.002295159149
0.002295159149
0.002295159149
0.002295159149
0.002295159149
0.002295159149
0.002295159149
0.002295159149
0.002368013371
0.002368013371
0.002368013371
0.00236801337
0.002368013371
0.002368013371
0.00236801337
0.002368013371
0.00236801337
0.002368013371
0.002368013371
0.002368013371
0.002368013371
0.00236801337
0.002368013371
0.002368013371
0.002368013371
0.002368013371
0.00236801337
0.002368013371
0.002368013371
0.002368013371
0.00236801337
0.002368013371
0.002368013371
0.002368013371
0.00236801337
0.002368013371
0.00236801337
0.002368013371
0.002368013371
0.00236801337
0.00236801337
0.00236801337
0.00236801337
0.00236801337
0.002368013371
0.00236801337
0.00236801337
0.002368013371
0.002368013371
0.00236801337
0.002368013371
0.002368013371
0.002368013371
0.002368013371
0.00236801337
0.002440189715
0.002440189715
0.002440189716
0.002440189716
0.002440189716
0.002440189716
0.002440189715
0.002440189716
0.002440189716
0.002440189715
0.002440189716
0.002440189716
0.002440189716
0.002440189716
0.002440189716
0.002440189715
0.002440189715
0.002440189716
0.002440189716
0.002440189715
0.002440189716
0.002440189716
0.002440189715
0.002440189716
0.002440189716
0.002440189716
0.002440189715
0.002440189715
0.002440189716
0.002440189716
0.002440189716
0.002440189715
0.002440189716
0.002440189716
0.002440189715
0.002440189716
0.002440189716
0.002440189716
0.002440189715
0.002440189715
0.002440189716
0.002440189715
0.002440189715
0.002440189716
0.002440189716
0.002440189716
0.002440189716
0.002511694491
0.002511694491
0.002511694492
0.002511694491
0.002511694492
0.002511694491
0.002511694491
0.002511694491
0.002511694491
0.002511694491
0.002511694491
0.002511694491
0.002511694491
0.002511694491
0.002511694491
0.002511694491
0.002511694491
0.002511694491
0.002511694491
0.002511694491
0.002511694491
0.002511694491
0.002511694491
0.002511694491
0.002511694491
0.002511694491
0.002511694492
0.002511694492
0.002511694491
0.002511694491
0.002511694491
0.002511694491
0.002511694492
0.002511694491
0.002511694491
0.002511694491
0.002511694492
0.002511694491
0.002511694491
0.002511694492
0.002511694491
0.002511694491
0.002511694491
0.002511694491
0.002511694491
0.002511694491
0.002511694491
0.002582533947
0.002582533947
0.002582533947
0.002582533947
0.002582533947
0.002582533947
0.002582533947
0.002582533947
0.002582533947
0.002582533947
0.002582533947
0.002582533947
0.002582533947
0.002582533947
0.002582533947
0.002582533947
0.002582533947
0.002582533947
0.002582533947
0.002582533947
0.002582533947
0.002582533947
0.002582533947
0.002582533947
0.002582533947
0.002582533947
0.002582533947
0.002582533947
0.002582533947
0.002582533947
0.002582533947
0.002582533947
0.002582533947
0.002582533947
0.002582533947
0.002582533947
0.002582533947
0.002582533947
0.002582533947
0.002582533947
0.002582533947
0.002582533947
0.002582533947
0.002582533947
0.002582533947
0.002582533947
0.002582533947
0.002652714272
0.002652714272
0.002652714272
0.002652714272
0.002652714272
0.002652714272
0.002652714272
0.002652714272
0.002652714272
0.002652714272
0.002652714272
0.002652714272
0.002652714272
0.002652714272
0.002652714272
0.002652714272
0.002652714272
0.002652714272
0.002652714272
0.002652714272
0.002652714272
0.002652714272
0.002652714272
0.002652714272
0.002652714272
0.002652714272
0.002652714272
0.002652714272
0.002652714272
0.002652714272
0.002652714272
0.002652714272
0.002652714272
0.002652714272
0.002652714272
0.002652714272
0.002652714272
0.002652714272
0.002652714272
0.002652714272
0.002652714272
0.002652714272
0.002652714272
0.002652714272
0.002652714272
0.002652714272
0.002652714272
0.0027222416
0.0027222416
0.0027222416
0.0027222416
0.0027222416
0.0027222416
0.0027222416
0.0027222416
0.0027222416
0.0027222416
0.0027222416
0.0027222416
0.0027222416
0.0027222416
0.0027222416
0.0027222416
0.0027222416
0.0027222416
0.0027222416
0.0027222416
0.0027222416
0.0027222416
0.0027222416
0.0027222416
0.0027222416
0.0027222416
0.0027222416
0.0027222416
0.0027222416
0.0027222416
0.0027222416
0.0027222416
0.0027222416
0.0027222416
0.0027222416
0.0027222416
0.0027222416
0.0027222416
0.0027222416
0.0027222416
0.0027222416
0.0027222416
0.0027222416
0.0027222416
0.0027222416
0.0027222416
0.0027222416
0.002791122007
0.002791122007
0.002791122007
0.002791122007
0.002791122007
0.002791122007
0.002791122007
0.002791122007
0.002791122007
0.002791122007
0.002791122007
0.002791122007
0.002791122007
0.002791122007
0.002791122007
0.002791122007
0.002791122007
0.002791122007
0.002791122007
0.002791122007
0.002791122007
0.002791122007
0.002791122007
0.002791122007
0.002791122007
0.002791122007
0.002791122007
0.002791122007
0.002791122007
0.002791122007
0.002791122007
0.002791122007
0.002791122007
0.002791122007
0.002791122007
0.002791122007
0.002791122007
0.002791122007
0.002791122007
0.002791122007
0.002791122007
0.002791122007
0.002791122007
0.002791122007
0.002791122007
0.002791122007
0.002791122007
0.002859361511
0.002859361511
0.002859361511
0.002859361511
0.002859361511
0.002859361511
0.002859361511
0.002859361511
0.002859361511
0.002859361512
0.002859361511
0.002859361511
0.002859361511
0.002859361511
0.002859361511
0.002859361511
0.002859361511
0.002859361511
0.002859361512
0.002859361511
0.002859361511
0.002859361511
0.002859361511
0.002859361511
0.002859361511
0.002859361511
0.002859361511
0.002859361511
0.002859361511
0.002859361511
0.002859361511
0.002859361511
0.002859361511
0.002859361511
0.002859361511
0.002859361511
0.002859361511
0.002859361511
0.002859361511
0.002859361512
0.002859361511
0.002859361511
0.002859361511
0.002859361511
0.002859361511
0.002859361511
0.002859361511
0.002926966077
0.002926966077
0.002926966077
0.002926966077
0.002926966077
0.002926966077
0.002926966077
0.002926966077
0.002926966077
0.002926966077
0.002926966077
0.002926966077
0.002926966077
0.002926966077
0.002926966077
0.002926966077
0.002926966077
0.002926966077
0.002926966077
0.002926966077
0.002926966077
0.002926966077
0.002926966077
0.002926966077
0.002926966077
0.002926966077
0.002926966077
0.002926966077
0.002926966077
0.002926966077
0.002926966077
0.002926966077
0.002926966077
0.002926966077
0.002926966077
0.002926966077
0.002926966077
0.002926966077
0.002926966077
0.002926966077
0.002926966077
0.002926966077
0.002926966077
0.002926966077
0.002926966077
0.002926966077
0.002926966077
0.002993941612
0.002993941612
0.002993941612
0.002993941612
0.002993941612
0.002993941612
0.002993941612
0.002993941612
0.002993941612
0.002993941612
0.002993941612
0.002993941612
0.002993941612
0.002993941612
0.002993941612
0.002993941612
0.002993941612
0.002993941612
0.002993941612
0.002993941612
0.002993941612
0.002993941612
0.002993941612
0.002993941612
0.002993941612
0.002993941612
0.002993941612
0.002993941612
0.002993941612
0.002993941612
0.002993941612
0.002993941612
0.002993941612
0.002993941612
0.002993941612
0.002993941612
0.002993941612
0.002993941612
0.002993941612
0.002993941612
0.002993941612
0.002993941612
0.002993941612
0.002993941612
0.002993941612
0.002993941612
0.002993941612
0.003060293969
0.003060293969
0.003060293969
0.003060293969
0.003060293969
0.003060293969
0.003060293969
0.003060293969
0.003060293969
0.003060293969
0.003060293969
0.003060293969
0.003060293969
0.003060293969
0.003060293969
0.003060293969
0.003060293969
0.003060293969
0.003060293969
0.003060293969
0.003060293969
0.003060293969
0.003060293969
0.003060293969
0.003060293969
0.003060293969
0.003060293969
0.003060293969
0.003060293969
0.003060293969
0.003060293969
0.003060293969
0.003060293969
0.003060293969
0.003060293969
0.003060293969
0.003060293969
0.003060293969
0.003060293969
0.003060293969
0.003060293969
0.003060293969
0.003060293969
0.003060293969
0.003060293969
0.003060293969
0.003060293969
0.003126028946
0.003126028946
0.003126028946
0.003126028947
0.003126028947
0.003126028947
0.003126028946
0.003126028947
0.003126028946
0.003126028946
0.003126028946
0.003126028947
0.003126028947
0.003126028946
0.003126028947
0.003126028946
0.003126028947
0.003126028947
0.003126028946
0.003126028946
0.003126028946
0.003126028947
0.003126028947
0.003126028946
0.003126028946
0.003126028947
0.003126028946
0.003126028946
0.003126028946
0.003126028946
0.003126028947
0.003126028946
0.003126028946
0.003126028947
0.003126028947
0.003126028947
0.003126028947
0.003126028947
0.003126028946
0.003126028947
0.003126028946
0.003126028946
0.003126028946
0.003126028946
0.003126028946
0.003126028946
0.003126028947
0.003191152289
0.003191152289
0.003191152289
0.003191152289
0.003191152289
0.003191152289
0.003191152289
0.003191152289
0.003191152289
0.003191152289
0.003191152289
0.003191152289
0.003191152289
0.003191152289
0.003191152289
0.003191152289
0.003191152289
0.003191152289
0.003191152289
0.003191152289
0.003191152289
0.003191152289
0.003191152289
0.003191152289
0.003191152289
0.003191152289
0.003191152289
0.003191152289
0.003191152289
0.003191152289
0.003191152289
0.003191152289
0.003191152289
0.003191152289
0.003191152289
0.003191152289
0.003191152289
0.003191152289
0.003191152289
0.003191152289
0.003191152289
0.003191152289
0.003191152289
0.003191152289
0.003191152289
0.003191152289