/*--------------------------------*- C++ -*----------------------------------*\
  =========                 |
  \\      /  F ield         | OpenFOAM: The Open Source CFD Toolbox
   \\    /   O peration     | Website:  https://openfoam.org
    \\  /    A nd           | Version:  7
     \\/     M anipulation  |
\*---------------------------------------------------------------------------*/
FoamFile
{
    version     2.0;
    format      ascii;
    class       volScalarField;
    location    "constant";
    object      V;
}
// * * * * * * * * * * * * * * * * * * * * * * * * * * * * * * * * * * * * * //

dimensions      [0 3 0 0 0 0 0];

internalField   nonuniform List<scalar> 
22090
(
8.662735461e-12
7.875214051e-12
7.159285507e-12
6.508441374e-12
5.916764873e-12
5.378877167e-12
4.889888333e-12
4.44535303e-12
4.041230021e-12
3.673845478e-12
3.339859527e-12
3.03623593e-12
2.760214486e-12
2.509285892e-12
2.281168993e-12
2.073789998e-12
1.88526363e-12
1.713876027e-12
1.558069122e-12
1.416426471e-12
1.287660426e-12
1.170600386e-12
1.064182176e-12
9.674383382e-13
8.794893975e-13
7.995358151e-13
7.268507444e-13
6.607733989e-13
6.007030976e-13
5.460937165e-13
4.964488366e-13
4.513171276e-13
4.102882876e-13
3.729893592e-13
3.390812442e-13
3.082556603e-13
2.802324278e-13
2.547567569e-13
2.315970423e-13
2.105427726e-13
1.914025136e-13
1.740022886e-13
1.581839004e-13
1.438035475e-13
1.307304952e-13
1.188458979e-13
1.080417348e-13
8.582132504e-12
7.801938635e-12
7.092671493e-12
6.447883179e-12
5.861711969e-12
5.328829073e-12
4.844390065e-12
4.403990968e-12
4.003628147e-12
3.639661956e-12
3.308783597e-12
3.007985085e-12
2.7345319e-12
2.485938086e-12
2.259943715e-12
2.054494291e-12
1.867722078e-12
1.697929162e-12
1.543571971e-12
1.403247243e-12
1.27567931e-12
1.159708462e-12
1.054280427e-12
9.584367484e-13
8.713061341e-13
7.920964847e-13
7.200877167e-13
6.546251919e-13
5.951138185e-13
5.410125538e-13
4.918295977e-13
4.471178195e-13
4.064707348e-13
3.695188566e-13
3.359262418e-13
3.053874764e-13
2.776249879e-13
2.523863569e-13
2.294421333e-13
2.085837643e-13
1.896215971e-13
1.723832735e-13
1.567120685e-13
1.424655185e-13
1.295141052e-13
1.177400889e-13
1.070364538e-13
8.502279512e-12
7.729345006e-12
7.026677284e-12
6.387888444e-12
5.807171301e-12
5.279246647e-12
4.799315133e-12
4.363013757e-12
3.966376137e-12
3.605796492e-12
3.277996812e-12
2.979997098e-12
2.709088276e-12
2.462807519e-12
2.238915926e-12
2.035378119e-12
1.85034374e-12
1.682130673e-12
1.529209709e-12
1.390190641e-12
1.263809672e-12
1.148917882e-12
1.044470808e-12
9.495189134e-13
8.631990113e-13
7.847263731e-13
7.133876153e-13
6.485341906e-13
5.895765445e-13
5.359786684e-13
4.872533383e-13
4.429575836e-13
4.026887023e-13
3.660806452e-13
3.328005949e-13
3.025459794e-13
2.750418087e-13
2.500380121e-13
2.273072745e-13
2.066429836e-13
1.87857251e-13
1.707793225e-13
1.552539312e-13
1.411399392e-13
1.283090331e-13
1.166445688e-13
1.060405263e-13
8.423169529e-12
7.657426841e-12
6.961297134e-12
6.328451944e-12
5.753138118e-12
5.230125572e-12
4.75465961e-12
4.322417827e-12
3.929470746e-12
3.572246137e-12
3.247496489e-12
2.952269532e-12
2.683881397e-12
2.439892175e-12
2.218083796e-12
2.016439818e-12
1.833127103e-12
1.666479185e-12
1.514981083e-12
1.377255527e-12
1.252050477e-12
1.138227705e-12
1.034752466e-12
9.406840563e-13
8.551673231e-13
7.774248383e-13
7.067498563e-13
6.424998644e-13
5.840907933e-13
5.30991622e-13
4.827196597e-13
4.388360576e-13
3.989418605e-13
3.626744253e-13
3.297040313e-13
2.997309218e-13
2.724826653e-13
2.477115181e-13
2.2519228e-13
2.047202612e-13
1.861093217e-13
1.691902958e-13
1.538093615e-13
1.398266939e-13
1.271151738e-13
1.155592422e-13
1.050538657e-13
8.34479562e-12
7.586177832e-12
6.896525308e-12
6.269568466e-12
5.699607684e-12
5.181461541e-12
4.710419581e-12
4.282199619e-12
3.892908739e-12
3.539007949e-12
3.217279954e-12
2.924799955e-12
2.658909054e-12
2.417190045e-12
2.197445496e-12
1.997677727e-12
1.816070657e-12
1.650973325e-12
1.500884846e-12
1.364440766e-12
1.240400695e-12
1.127636994e-12
1.025124546e-12
9.319314025e-13
8.47210365e-13
7.701912401e-13
7.00173858e-13
6.365216841e-13
5.786560839e-13
5.260509771e-13
4.782281643e-13
4.347528799e-13
3.952298809e-13
3.592998984e-13
3.266362795e-13
2.969420566e-13
2.699473333e-13
2.454066707e-13
2.230969643e-13
2.028154287e-13
1.843776559e-13
1.676160541e-13
1.523782326e-13
1.385256677e-13
1.259324227e-13
1.14484014e-13
1.040763855e-13
8.267150961e-12
7.515591778e-12
6.832356168e-12
6.211232884e-12
5.646575337e-12
5.133250316e-12
4.666591196e-12
4.242355632e-12
3.856686933e-12
3.506079034e-12
3.187344577e-12
2.897585976e-12
2.634169073e-12
2.394699153e-12
2.17699923e-12
1.979090213e-12
1.799172917e-12
1.635611743e-12
1.486919772e-12
1.351745244e-12
1.228859311e-12
1.117144827e-12
1.015586213e-12
9.2326019e-13
8.393274446e-13
7.630249488e-13
6.936590476e-13
6.305991293e-13
5.732719431e-13
5.211563037e-13
4.737784612e-13
4.307076953e-13
3.915524404e-13
3.559567706e-13
3.235970723e-13
2.941791411e-13
2.674355918e-13
2.431232694e-13
2.21021145e-13
2.009283202e-13
1.826621027e-13
1.660564603e-13
1.509604201e-13
1.372367472e-13
1.247606768e-13
1.134187905e-13
1.031080004e-13
8.190228729e-12
7.445662477e-12
6.768784076e-12
6.153440073e-12
5.594036418e-12
5.085487662e-12
4.623170601e-12
4.202882365e-12
3.820802144e-12
3.473456499e-12
3.157687727e-12
2.870625203e-12
2.609659279e-12
2.372417523e-12
2.156743202e-12
1.960675643e-12
1.782432398e-12
1.620393089e-12
1.473084632e-12
1.339167844e-12
1.217425311e-12
1.106750282e-12
1.006136626e-12
9.146696568e-13
8.31517869e-13
7.559253347e-13
6.872048529e-13
6.247316796e-13
5.679378979e-13
5.163071718e-13
4.693701594e-13
4.267001481e-13
3.879092159e-13
3.526447482e-13
3.205861428e-13
2.914419326e-13
2.649472204e-13
2.408611135e-13
2.189646397e-13
1.990587699e-13
1.809625116e-13
1.645113774e-13
1.495557993e-13
1.359598191e-13
1.235998331e-13
1.123634782e-13
1.021486254e-13
8.11402224e-12
7.37638385e-12
6.705803506e-12
6.096185009e-12
5.54198636e-12
5.038169428e-12
4.580154025e-12
4.163776386e-12
3.785251254e-12
3.441137508e-12
3.128306826e-12
2.843915293e-12
2.585377543e-12
2.350343217e-12
2.136675652e-12
1.942432415e-12
1.765847646e-12
1.605316042e-12
1.459378225e-12
1.326707474e-12
1.206097702e-12
1.096452455e-12
9.967749657e-13
9.061590565e-13
8.237809596e-13
7.488917807e-13
6.808107129e-13
6.189188251e-13
5.626534846e-13
5.115031598e-13
4.650028758e-13
4.227298903e-13
3.842998906e-13
3.493635433e-13
3.176032292e-13
2.887301932e-13
2.624820026e-13
2.386200064e-13
2.169272697e-13
1.972066152e-13
1.792787347e-13
1.629806711e-13
1.481642481e-13
1.346947726e-13
1.224497909e-13
1.113179853e-13
1.011981772e-13
8.038524817e-12
7.30774983e-12
6.643408942e-12
6.039462678e-12
5.490420605e-12
4.991291468e-12
4.537537698e-12
4.125034271e-12
3.75003115e-12
3.409119231e-12
3.099199302e-12
2.817453907e-12
2.561321738e-12
2.328474303e-12
2.116794821e-12
1.924358932e-12
1.749417207e-12
1.590379279e-12
1.44579935e-12
1.314363043e-12
1.194875492e-12
1.086250445e-12
9.875004113e-13
8.977276434e-13
8.161160387e-13
7.419236707e-13
6.744760675e-13
6.131600566e-13
5.574182404e-13
5.06743847e-13
4.606762277e-13
4.187965738e-13
3.807241485e-13
3.461128686e-13
3.146480703e-13
2.860436852e-13
2.600397225e-13
2.363997517e-13
2.149088565e-13
1.953716941e-13
1.776106246e-13
1.614642074e-13
1.467856447e-13
1.334414967e-13
1.213104492e-13
1.102822202e-13
1.002565725e-13
7.963729869e-12
7.239754422e-12
6.581594935e-12
5.983268126e-12
5.439334649e-12
4.94484969e-12
4.495317899e-12
4.086652636e-12
3.715138754e-12
3.377398871e-12
3.070362611e-12
2.791238734e-12
2.537489762e-12
2.306808871e-12
2.097098974e-12
1.906453616e-12
1.733139647e-12
1.575581497e-12
1.432346821e-12
1.302133471e-12
1.183757699e-12
1.076143361e-12
9.78312153e-13
8.893746814e-13
8.085224368e-13
7.350203963e-13
6.682003634e-13
6.074548711e-13
5.522317081e-13
5.020288177e-13
4.563898374e-13
4.148998553e-13
3.771816772e-13
3.428924401e-13
3.11720408e-13
2.833821741e-13
2.57620167e-13
2.342001557e-13
2.129092238e-13
1.935538461e-13
1.759580356e-13
1.599618537e-13
1.454198686e-13
1.321998821e-13
1.201817087e-13
1.092560925e-13
9.93237291e-14
7.889630847e-12
7.172391675e-12
6.520356074e-12
5.927596435e-12
5.38872402e-12
4.898840027e-12
4.453490933e-12
4.048628121e-12
3.680571014e-12
3.345973653e-12
3.041794231e-12
2.765267479e-12
2.51387953e-12
2.285345024e-12
2.077586385e-12
1.8887149e-12
1.717013541e-12
1.560921401e-12
1.419019461e-12
1.290017689e-12
1.172743352e-12
1.066130318e-12
9.692093865e-13
8.810994391e-13
8.009994893e-13
7.281813532e-13
6.619830514e-13
6.018027694e-13
5.470934337e-13
4.973576592e-13
4.521433297e-13
4.110393937e-13
3.736721668e-13
3.39701976e-13
3.08819986e-13
2.80745427e-13
2.55223124e-13
2.320210257e-13
2.109281966e-13
1.917529123e-13
1.743208231e-13
1.584734787e-13
1.440668004e-13
1.309698201e-13
1.190634704e-13
1.082395123e-13
9.839956526e-14
7.81622127e-12
7.105655696e-12
6.459687002e-12
5.872442733e-12
5.338584291e-12
4.853258456e-12
4.412053141e-12
4.010957401e-12
3.646324904e-12
3.314840826e-12
3.013491661e-12
2.73953787e-12
2.490488977e-12
2.264080884e-12
2.058255349e-12
1.87114123e-12
1.701037478e-12
1.546397708e-12
1.405816103e-12
1.278014636e-12
1.161831486e-12
1.05621044e-12
9.601913154e-13
8.729011928e-13
7.935465381e-13
7.21405943e-13
6.558235876e-13
5.962032568e-13
5.420029677e-13
4.927299629e-13
4.47936333e-13
4.072148513e-13
3.701953101e-13
3.365411972e-13
3.059465506e-13
2.781332131e-13
2.528483841e-13
2.298621712e-13
2.089656017e-13
1.89968735e-13
1.726988438e-13
1.56998952e-13
1.427263215e-13
1.29751203e-13
1.179556367e-13
1.072323908e-13
9.748400018e-14
7.743494774e-12
7.0395407e-12
6.39958246e-12
5.81780224e-12
5.288911116e-12
4.808101023e-12
4.37100093e-12
3.973637209e-12
3.612397457e-12
3.283997692e-12
2.985452448e-12
2.714047677e-12
2.467316074e-12
2.243014609e-12
2.03910419e-12
1.853731085e-12
1.685210074e-12
1.532009158e-12
1.392735604e-12
1.266123273e-12
1.151021156e-12
1.046382867e-12
9.512571582e-13
8.647792317e-13
7.861629371e-13
7.146935784e-13
6.49721438e-13
5.906558481e-13
5.369598688e-13
4.881453276e-13
4.437684827e-13
4.034258965e-13
3.667508058e-13
3.334098296e-13
3.030998527e-13
2.755453061e-13
2.504957412e-13
2.277234049e-13
2.070212688e-13
1.882011596e-13
1.710919571e-13
1.555381459e-13
1.41398316e-13
1.285439252e-13
1.168581115e-13
1.062346407e-13
9.65769545e-14
7.67144495e-12
6.97404086e-12
6.340037151e-12
5.763670141e-12
5.239700117e-12
4.763363751e-12
4.330330682e-12
3.936664257e-12
3.578785683e-12
3.253441533e-12
2.957674122e-12
2.688794653e-12
2.44435878e-12
2.222144341e-12
2.020131219e-12
1.83648293e-12
1.669529933e-12
1.517754485e-12
1.379776809e-12
1.254342551e-12
1.140311408e-12
1.036646733e-12
9.424061274e-13
8.567328401e-13
7.788480357e-13
7.08043668e-13
6.436760649e-13
5.851600544e-13
5.319636927e-13
4.836033494e-13
4.396394116e-13
3.996721954e-13
3.633383503e-13
3.303075973e-13
3.002796415e-13
2.729814778e-13
2.481649882e-13
2.256045385e-13
2.050950267e-13
1.864500303e-13
1.695000215e-13
1.540909317e-13
1.400826667e-13
1.273478803e-13
1.15770798e-13
1.052461739e-13
9.567834828e-14
7.600065454e-12
6.909150409e-12
6.281045831e-12
5.710041669e-12
5.19094696e-12
4.7190427e-12
4.290038818e-12
3.900035289e-12
3.545486621e-12
3.223169659e-12
2.930154236e-12
2.663776575e-12
2.421615072e-12
2.201468244e-12
2.001334767e-12
1.819395247e-12
1.653995675e-12
1.503632432e-12
1.36693858e-12
1.242671433e-12
1.129701301e-12
1.027001181e-12
9.336374437e-13
8.487613094e-13
7.716011896e-13
7.014556262e-13
6.376869359e-13
5.797153918e-13
5.270139993e-13
4.791036282e-13
4.355487559e-13
3.959534175e-13
3.599576432e-13
3.272342271e-13
2.974856685e-13
2.704415026e-13
2.458559197e-13
2.235053853e-13
2.031867056e-13
1.84715193e-13
1.679228967e-13
1.526571818e-13
1.387792577e-13
1.26162963e-13
1.146936005e-13
1.042669035e-13
9.478810239e-14
7.529350308e-12
6.844863913e-12
6.222603562e-12
5.656912333e-12
5.142647564e-12
4.675134158e-12
4.250121961e-12
3.863747238e-12
3.512497484e-12
3.193179534e-12
2.902890486e-12
2.638991348e-12
2.399083048e-12
2.180984585e-12
1.982713259e-12
1.802466603e-12
1.638605999e-12
1.489641817e-12
1.354219839e-12
1.231108942e-12
1.119189945e-12
1.017445403e-12
9.249503727e-13
8.408639722e-13
7.644217922e-13
6.949289012e-13
6.317535496e-13
5.743214042e-13
5.221103742e-13
4.746457873e-13
4.314961732e-13
3.922692514e-13
3.566084014e-13
3.241894618e-13
2.947177e-13
2.679251676e-13
2.435683424e-13
2.214257695e-13
2.012961459e-13
1.829965023e-13
1.663604507e-13
1.512367763e-13
1.374879799e-13
1.249890742e-13
1.136264288e-13
1.032967475e-13
9.39061423e-14
7.459292893e-12
6.781175353e-12
6.164704872e-12
5.60427716e-12
5.094797407e-12
4.631634015e-12
4.210576377e-12
3.827796706e-12
3.479815182e-12
3.163468351e-12
2.87588032e-12
2.614436652e-12
2.376760596e-12
2.160691447e-12
1.964264952e-12
1.785695415e-12
1.623359464e-12
1.475781331e-12
1.341619397e-12
1.219653994e-12
1.108776357e-12
1.007978505e-12
9.163441013e-13
8.330400891e-13
7.573091712e-13
6.884628822e-13
6.258753504e-13
5.689775868e-13
5.172523583e-13
4.702294093e-13
4.274812841e-13
3.886193521e-13
3.532903113e-13
3.211730161e-13
2.919754766e-13
2.654322374e-13
2.413020421e-13
2.193654966e-13
1.994231706e-13
1.812937973e-13
1.648125371e-13
1.498295822e-13
1.362087125e-13
1.238261038e-13
1.12569183e-13
1.02335615e-13
9.303238542e-14
7.389887415e-12
6.718079464e-12
6.107344973e-12
5.552131797e-12
5.047392532e-12
4.588538674e-12
4.171398794e-12
3.792180722e-12
3.447437015e-12
3.134033653e-12
2.849121504e-12
2.590110455e-12
2.354645872e-12
2.140587153e-12
1.945988321e-12
1.769080295e-12
1.60825481e-12
1.462049827e-12
1.329136212e-12
1.208305644e-12
1.098459675e-12
9.985997031e-13
9.078179177e-13
8.252890132e-13
7.502627385e-13
6.820570343e-13
6.200518523e-13
5.636834977e-13
5.124395499e-13
4.65854129e-13
4.235037566e-13
3.85003418e-13
3.500030985e-13
3.181846408e-13
2.892587717e-13
2.629625058e-13
2.390568315e-13
2.17324396e-13
1.975676246e-13
1.796069373e-13
1.632790281e-13
1.48435483e-13
1.349413497e-13
1.226739557e-13
1.115217757e-13
1.013834266e-13
9.216675951e-14
7.321127805e-12
6.655570728e-12
6.050518849e-12
5.500471685e-12
5.000428793e-12
4.545844366e-12
4.132585787e-12
3.75689617e-12
3.415360149e-12
3.104872867e-12
2.822611698e-12
2.566010631e-12
2.332736941e-12
2.120669943e-12
1.927881766e-12
1.752619791e-12
1.593290716e-12
1.448446105e-12
1.316769192e-12
1.197062898e-12
1.088238997e-12
9.893081778e-13
8.993710765e-13
8.176100667e-13
7.432818781e-13
6.757107975e-13
6.142825461e-13
5.584386739e-13
5.076715283e-13
4.615195639e-13
4.195632428e-13
3.814211327e-13
3.467464756e-13
3.152240745e-13
2.865673477e-13
2.605157569e-13
2.368325142e-13
2.153022893e-13
1.957293459e-13
1.779357748e-13
1.617597895e-13
1.47054357e-13
1.336857805e-13
1.215325292e-13
1.104841153e-13
1.00440099e-13
9.130918888e-14
7.253007903e-12
6.593643545e-12
5.994221409e-12
5.449292194e-12
4.953901984e-12
4.503547267e-12
4.094133878e-12
3.721939889e-12
3.383581712e-12
3.075983378e-12
2.796348527e-12
2.542135021e-12
2.311031841e-12
2.100938034e-12
1.909943667e-12
1.736312428e-12
1.57846584e-12
1.434968946e-12
1.304517228e-12
1.18592475e-12
1.078113408e-12
9.801030966e-13
8.910028208e-13
8.100025615e-13
7.363659643e-13
6.694236032e-13
6.085669148e-13
5.532426456e-13
5.029478661e-13
4.572253256e-13
4.156593898e-13
3.778721754e-13
3.435201508e-13
3.12291052e-13
2.839009635e-13
2.580917714e-13
2.34628891e-13
2.132989954e-13
1.939081697e-13
1.7628016e-13
1.602546852e-13
1.456860803e-13
1.324418926e-13
1.20401722e-13
1.094561088e-13
9.950554769e-14
9.045959669e-14
7.185521824e-12
6.532292564e-12
5.93844779e-12
5.398588904e-12
4.907808084e-12
4.461643721e-12
4.056039746e-12
3.68730886e-12
3.352098958e-12
3.047362693e-12
2.770329722e-12
2.518481562e-12
2.289528696e-12
2.081389721e-12
1.892172473e-12
1.720156797e-12
1.563778903e-12
1.421617185e-12
1.292379264e-12
1.174890237e-12
1.068082032e-12
9.709836642e-13
8.827124277e-13
8.024658405e-13
7.295143997e-13
6.631949081e-13
6.029044648e-13
5.480949637e-13
4.982681552e-13
4.529710431e-13
4.117918602e-13
3.743562394e-13
3.403238455e-13
3.093853198e-13
2.812593887e-13
2.556903399e-13
2.324457713e-13
2.113143411e-13
1.921039387e-13
1.746399499e-13
1.587635852e-13
1.443305348e-13
1.312095785e-13
1.192814364e-13
1.084376674e-13
9.857969191e-14
8.961790955e-14
7.118663775e-12
6.471512519e-12
5.883193204e-12
5.348357462e-12
4.862143136e-12
4.420130132e-12
4.01830012e-12
3.653000109e-12
3.320909185e-12
3.019008353e-12
2.744553049e-12
2.495048224e-12
2.268225662e-12
2.062023325e-12
1.874566659e-12
1.704151512e-12
1.549228644e-12
1.408389676e-12
1.280354256e-12
1.163958412e-12
1.058144009e-12
9.619490978e-13
8.744991855e-13
7.949992567e-13
7.227265963e-13
6.570241777e-13
5.972947099e-13
5.429951866e-13
4.936319941e-13
4.487563512e-13
4.079603221e-13
3.708730229e-13
3.371572851e-13
3.065066285e-13
2.786423966e-13
2.533112562e-13
2.30282968e-13
2.093481562e-13
1.903164979e-13
1.730150037e-13
1.572863614e-13
1.429876041e-13
1.299887324e-13
1.181715763e-13
1.074287036e-13
9.76624522e-14
8.87840552e-14
7.052427594e-12
6.41129781e-12
5.828452559e-12
5.298593239e-12
4.816902934e-12
4.379002676e-12
3.980911523e-12
3.619010475e-12
3.290009518e-12
2.990917747e-12
2.719016134e-12
2.471832847e-12
2.247120773e-12
2.042837063e-12
1.857124603e-12
1.688295097e-12
1.534813721e-12
1.395285201e-12
1.268441097e-12
1.153128267e-12
1.048298423e-12
9.52998565e-13
8.663623374e-13
7.876021221e-13
7.160019285e-13
6.509108434e-13
5.917371331e-13
5.379428441e-13
4.890389555e-13
4.445808616e-13
4.041644225e-13
3.67422205e-13
3.34020178e-13
3.036547129e-13
2.760497459e-13
2.509543012e-13
2.281402815e-13
2.074002594e-13
1.885456827e-13
1.714051717e-13
1.558228778e-13
1.416571644e-13
1.287792418e-13
1.170720394e-13
1.064291246e-13
9.675374405e-14
8.795795681e-14
6.98680795e-12
6.351643587e-12
5.774221448e-12
5.249292229e-12
4.772083834e-12
4.338258039e-12
3.943870944e-12
3.585337222e-12
3.25939747e-12
2.963088612e-12
2.693716921e-12
2.448833562e-12
2.226212332e-12
2.023829389e-12
1.839844899e-12
1.672586276e-12
1.520532974e-12
1.382302704e-12
1.256638827e-12
1.142398931e-12
1.038544481e-12
9.44131345e-13
8.583012282e-13
7.802738411e-13
7.093398548e-13
6.448544128e-13
5.862312871e-13
5.329375296e-13
4.844886695e-13
4.404442381e-13
4.004038556e-13
3.640035078e-13
3.309122716e-13
3.008293433e-13
2.734812281e-13
2.486192851e-13
2.260175395e-13
2.054704939e-13
1.867913505e-13
1.698103242e-13
1.543730165e-13
1.403391086e-13
1.275810092e-13
1.159827371e-13
1.054388498e-13
9.585349429e-14
8.713954786e-14
6.921798681e-12
6.292544252e-12
5.720494779e-12
5.200449802e-12
4.727681628e-12
4.297892398e-12
3.907174906e-12
3.551977187e-12
3.229070166e-12
2.935518336e-12
2.668653033e-12
2.426048209e-12
2.205498376e-12
2.00499852e-12
1.822725927e-12
1.657023573e-12
1.506385063e-12
1.369440967e-12
1.244946338e-12
1.131769396e-12
1.028881267e-12
9.353466053e-13
8.503151012e-13
7.730137256e-13
7.027397499e-13
6.388543174e-13
5.807766549e-13
5.279787731e-13
4.79980709e-13
4.363460922e-13
3.966782684e-13
3.606166104e-13
3.278332739e-13
2.980302545e-13
2.709366019e-13
2.463059887e-13
2.239145427e-13
2.035586786e-13
1.850533367e-13
1.682303115e-13
1.529366414e-13
1.390333131e-13
1.263939223e-13
1.149035671e-13
1.044577862e-13
9.496161839e-14
8.632875152e-14
6.857394453e-12
6.233994954e-12
5.667268145e-12
5.152061953e-12
4.683692674e-12
4.257902439e-12
3.870820399e-12
3.518927635e-12
3.199025118e-12
2.908204656e-12
2.643822416e-12
2.40347492e-12
2.184977204e-12
1.986342909e-12
1.805766281e-12
1.641605713e-12
1.492368827e-12
1.356698934e-12
1.233362672e-12
1.12123879e-12
1.019307989e-12
9.266436253e-13
8.424033012e-13
7.658211802e-13
6.962010722e-13
6.32910065e-13
5.75372789e-13
5.230661678e-13
4.755147041e-13
4.322860878e-13
3.929873553e-13
3.572612348e-13
3.247829326e-13
2.952572169e-13
2.684156585e-13
2.440142221e-13
2.218311185e-13
2.016646565e-13
1.833314985e-13
1.66665004e-13
1.515136346e-13
1.377396705e-13
1.252178837e-13
1.138344411e-13
1.034858535e-13
9.407804319e-14
8.552550126e-14
6.793589383e-12
6.175990344e-12
5.614536681e-12
5.104124259e-12
4.640112953e-12
4.218284511e-12
3.8348041e-12
3.486185545e-12
3.169259582e-12
2.881145078e-12
2.619222799e-12
2.381111633e-12
2.164646942e-12
1.967860853e-12
1.788964412e-12
1.626331287e-12
1.478482985e-12
1.344075441e-12
1.221886769e-12
1.110806151e-12
1.009823772e-12
9.180216097e-13
8.345651051e-13
7.586955474e-13
6.897232243e-13
6.270211123e-13
5.700191957e-13
5.181992648e-13
4.710902467e-13
4.28263854e-13
3.89330779e-13
3.539370745e-13
3.217609688e-13
2.92509977e-13
2.659181676e-13
2.41743776e-13
2.197670765e-13
1.997882547e-13
1.816256787e-13
1.651142587e-13
1.501038662e-13
1.364580629e-13
1.240527858e-13
1.127752611e-13
1.025229626e-13
9.320268794e-14
8.47297237e-14
6.730377952e-12
6.118525407e-12
5.56229583e-12
5.056632576e-12
4.596938695e-12
4.179035185e-12
3.799122895e-12
3.453748087e-12
3.139770983e-12
2.854337261e-12
2.594852056e-12
2.358956412e-12
2.144505832e-12
1.949550753e-12
1.772318867e-12
1.611198973e-12
1.464726336e-12
1.331569396e-12
1.210517637e-12
1.100470577e-12
1.000427796e-12
9.09479813e-13
8.267998354e-13
7.516362113e-13
6.83305646e-13
6.211869502e-13
5.64715412e-13
5.133776432e-13
4.667069544e-13
4.242790428e-13
3.857082234e-13
3.506438421e-13
3.187671212e-13
2.897882973e-13
2.634439133e-13
2.39494454e-13
2.177222382e-13
1.979293108e-13
1.799357298e-13
1.635779415e-13
1.487072142e-13
1.351883792e-13
1.228985279e-13
1.117259358e-13
1.015690305e-13
9.233547697e-14
8.394135002e-14
6.667754736e-12
6.061595211e-12
5.510541106e-12
5.009582827e-12
4.554166196e-12
4.140151095e-12
3.763773722e-12
3.421612475e-12
3.110556791e-12
2.827778904e-12
2.570708095e-12
2.337007357e-12
2.124552146e-12
1.931411038e-12
1.755828217e-12
1.596207473e-12
1.451097699e-12
1.319179727e-12
1.199254302e-12
1.090231181e-12
9.911192538e-13
9.010175021e-13
8.191068254e-13
7.446425659e-13
6.769477865e-13
6.15407078e-13
5.594609826e-13
5.086008894e-13
4.623644508e-13
4.203313123e-13
3.821193775e-13
3.473812549e-13
3.158011329e-13
2.870919443e-13
2.609926832e-13
2.372660631e-13
2.156964283e-13
1.960876654e-13
1.782615067e-13
1.620559205e-13
1.473235588e-13
1.339305106e-13
1.21755011e-13
1.106863749e-13
1.006239752e-13
9.147633585e-14
8.316031257e-14
6.605714218e-12
6.00519474e-12
5.45926795e-12
4.962970867e-12
4.511791688e-12
4.101628815e-12
3.728753467e-12
3.389775879e-12
3.081614431e-12
2.801467668e-12
2.54678879e-12
2.315262534e-12
2.104784125e-12
1.91344011e-12
1.739491009e-12
1.581355466e-12
1.437595875e-12
1.306905341e-12
1.188095769e-12
1.08008706e-12
9.818973261e-13
8.926339315e-13
8.114853975e-13
7.377139951e-13
6.706490858e-13
6.096809865e-13
5.542554449e-13
5.038685823e-13
4.580623534e-13
4.164203148e-13
3.785639251e-13
3.441490255e-13
3.128627426e-13
2.844206803e-13
2.585642613e-13
2.35058407e-13
2.136894681e-13
1.942631561e-13
1.76602862e-13
1.605480616e-13
1.45952778e-13
1.326843463e-13
1.206221343e-13
1.09656487e-13
9.96877135e-14
9.062518887e-14
8.238654252e-14
6.544250972e-12
5.949319062e-12
5.408471879e-12
4.916792621e-12
4.469811464e-12
4.063464975e-12
3.694059067e-12
3.358235516e-12
3.052941373e-12
2.775401252e-12
2.523092048e-12
2.293720041e-12
2.08520004e-12
1.895636397e-12
1.723305816e-12
1.566641654e-12
1.424219682e-12
1.294745165e-12
1.177041064e-12
1.070037328e-12
9.727612063e-13
8.843283681e-13
8.039348852e-13
7.308498931e-13
6.644089931e-13
6.040081749e-13
5.490983434e-13
4.991803083e-13
4.538002861e-13
4.125457081e-13
3.750415554e-13
3.409468712e-13
3.099516933e-13
2.817742718e-13
2.561584354e-13
2.328712926e-13
2.117011822e-13
1.924556234e-13
1.749596505e-13
1.590542329e-13
1.44594752e-13
1.314497772e-13
1.194997987e-13
1.08636182e-13
9.876016347e-14
8.978196162e-14
8.161997222e-14
6.483359574e-12
5.893963246e-12
5.35814841e-12
4.871044012e-12
4.428221819e-12
4.025656207e-12
3.65968746e-12
3.3269886e-12
3.024535087e-12
2.749577355e-12
2.499615778e-12
2.272377977e-12
2.065798164e-12
1.877998328e-12
1.707271207e-12
1.552064737e-12
1.41096794e-12
1.282698127e-12
1.166089211e-12
1.060081098e-12
9.637100879e-13
8.761000787e-13
7.964546221e-13
7.240496539e-13
6.582269574e-13
5.983881425e-13
5.43989223e-13
4.945356534e-13
4.495778725e-13
4.087071504e-13
3.715519575e-13
3.377745094e-13
3.070677281e-13
2.791524852e-13
2.53774993e-13
2.307045269e-13
2.097313951e-13
1.906649079e-13
1.733317274e-13
1.575743027e-13
1.43249361e-13
1.302266944e-13
1.183879053e-13
1.076253697e-13
9.784124327e-14
8.894657966e-14
8.086053401e-14
6.42303469e-12
5.839122442e-12
5.308293133e-12
4.825721034e-12
4.387019112e-12
3.9881992e-12
3.625635636e-12
3.296032396e-12
2.996393083e-12
2.723993715e-12
2.476357923e-12
2.251234473e-12
2.046576797e-12
1.860524358e-12
1.69138578e-12
1.537623439e-12
1.397839487e-12
1.27076317e-12
1.15523925e-12
1.050217498e-12
9.547431783e-13
8.679483426e-13
7.890439529e-13
7.173126819e-13
6.521024375e-13
5.928203971e-13
5.389276363e-13
4.89934211e-13
4.45394743e-13
4.049043054e-13
3.680948257e-13
3.346316622e-13
3.042105944e-13
2.765550909e-13
2.514137254e-13
2.285579201e-13
2.077799343e-13
1.888908526e-13
1.717189499e-13
1.561081413e-13
1.41916487e-13
1.290149908e-13
1.172863565e-13
1.066239617e-13
9.69308724e-14
8.811896983e-14
8.010816138e-14
6.363271262e-12
5.784792053e-12
5.258901871e-12
4.780819886e-12
4.346199887e-12
3.951090814e-12
3.591900739e-12
3.265364308e-12
2.968513003e-12
2.698648188e-12
2.453316535e-12
2.230287757e-12
2.027534327e-12
1.843213022e-12
1.675648202e-12
1.52331655e-12
1.384833224e-12
1.258939295e-12
1.144490272e-12
1.0404457e-12
9.458597256e-13
8.598724766e-13
7.817022565e-13
7.106384125e-13
6.460349198e-13
5.873044719e-13
5.339131588e-13
4.853755951e-13
4.412505467e-13
4.011368543e-13
3.646698701e-13
3.315180662e-13
3.013800527e-13
2.739818711e-13
2.490744346e-13
2.264312922e-13
2.058466362e-13
1.871333088e-13
1.701211829e-13
1.546556258e-13
1.405960184e-13
1.278145647e-13
1.161950601e-13
1.056318741e-13
9.602897455e-14
8.729906274e-14
7.936279123e-14
6.304063775e-12
5.730967065e-12
5.209970063e-12
4.736336424e-12
4.305760376e-12
3.914327622e-12
3.558479656e-12
3.234981505e-12
2.940892273e-12
2.673538433e-12
2.430489486e-12
2.209535893e-12
2.008668997e-12
1.826062722e-12
1.66005702e-12
1.509142748e-12
1.37194795e-12
1.247225409e-12
1.133841285e-12
1.030764802e-12
9.370589099e-13
8.51871735e-13
7.74428855e-13
7.040262293e-13
6.400238442e-13
5.818398577e-13
5.289453277e-13
4.808593851e-13
4.371449011e-13
3.974044494e-13
3.612767746e-13
3.28433434e-13
2.985758416e-13
2.714325883e-13
2.467569046e-13
2.243244469e-13
2.039313222e-13
1.853921142e-13
1.685382788e-13
1.532166221e-13
1.392878333e-13
1.266253055e-13
1.151139153e-13
1.046490152e-13
9.513546647e-14
8.648678271e-14
7.862435478e-14
6.245407169e-12
5.677642878e-12
5.16149353e-12
4.692266848e-12
4.265697126e-12
3.877906485e-12
3.525369531e-12
3.204881392e-12
2.913528534e-12
2.648662307e-12
2.407874825e-12
2.188977111e-12
1.989979195e-12
1.809071992e-12
1.644610902e-12
1.495100823e-12
1.359182563e-12
1.235620512e-12
1.123291379e-12
1.021173979e-12
9.283399793e-13
8.439454345e-13
7.672231272e-13
6.974755677e-13
6.340686973e-13
5.764260878e-13
5.240237187e-13
4.763851951e-13
4.330774556e-13
3.937067717e-13
3.579152494e-13
3.25377502e-13
2.957977217e-13
2.689070246e-13
2.444609376e-13
2.222372043e-13
2.020338289e-13
1.836671203e-13
1.669701025e-13
1.517910072e-13
1.379918198e-13
1.254471114e-13
1.140428298e-13
1.03675301e-13
9.425027182e-14
8.568206035e-14
7.789278893e-14
6.187296389e-12
5.624814896e-12
5.113468092e-12
4.648607359e-12
4.226006681e-12
3.841824263e-12
3.492567511e-12
3.175061374e-12
2.886419426e-12
2.624017663e-12
2.385470604e-12
2.168609637e-12
1.97146331e-12
1.792239369e-12
1.629308518e-12
1.481189564e-12
1.346535965e-12
1.224123604e-12
1.112839644e-12
1.011672402e-12
9.197021821e-13
8.360928916e-13
7.600844518e-13
6.909858628e-13
6.281689656e-13
5.710626954e-13
5.191479073e-13
4.719526393e-13
4.290478595e-13
3.900435025e-13
3.545850047e-13
3.223500067e-13
2.930454533e-13
2.664049625e-13
2.421863356e-13
2.201693844e-13
2.001539925e-13
1.819581781e-13
1.654165188e-13
1.503786584e-13
1.367078663e-13
1.242798809e-13
1.129817112e-13
1.027106477e-13
9.337331429e-14
8.488482628e-14
7.716803062e-14
6.129726377e-12
5.572478521e-12
5.065889569e-12
4.605354156e-12
4.186685588e-12
3.806077814e-12
3.46007074e-12
3.145518854e-12
2.859562591e-12
2.599602358e-12
2.363274872e-12
2.148431699e-12
1.953119729e-12
1.775563387e-12
1.614148534e-12
1.467407761e-12
1.334007053e-12
1.212733684e-12
1.102485172e-12
1.002259245e-12
9.111447665e-13
8.283134229e-13
7.530122075e-13
6.845565498e-13
6.223241356e-13
5.657492136e-13
5.143174693e-13
4.675613321e-13
4.250557619e-13
3.86414323e-13
3.512857506e-13
3.193506848e-13
2.903187971e-13
2.63926184e-13
2.399329006e-13
2.181208072e-13
1.982916496e-13
1.80265139e-13
1.638773924e-13
1.489794525e-13
1.354358611e-13
1.231235125e-13
1.119304671e-13
1.017549713e-13
9.250451756e-14
8.409501112e-14
7.645001677e-14
6.07269189e-12
5.520628988e-12
5.01875363e-12
4.562503303e-12
4.147730266e-12
3.770663886e-12
3.427876259e-12
3.116251145e-12
2.832955582e-12
2.575414168e-12
2.341285608e-12
2.12844146e-12
1.934946784e-12
1.759042528e-12
1.599129571e-12
1.453754159e-12
1.321594687e-12
1.201449715e-12
1.092227018e-12
9.929336503e-13
9.026669536e-13
8.206063203e-13
7.460057505e-13
6.781870435e-13
6.165336753e-13
5.604851588e-13
5.095319649e-13
4.632108736e-13
4.211007996e-13
3.828189027e-13
3.480171867e-13
3.16379263e-13
2.876175046e-13
2.614704636e-13
2.377004274e-13
2.160912863e-13
1.964466305e-13
1.785878489e-13
1.623525833e-13
1.475932623e-13
1.341756882e-13
1.219779008e-13
1.108890019e-13
1.008081848e-13
9.164380253e-14
8.331254295e-14
7.573868202e-14
6.016188241e-12
5.469262034e-12
4.972056399e-12
4.520051275e-12
4.109137514e-12
3.735579565e-12
3.395981422e-12
3.087255838e-12
2.806596212e-12
2.551451105e-12