/*--------------------------------*- C++ -*----------------------------------*\
  =========                 |
  \\      /  F ield         | OpenFOAM: The Open Source CFD Toolbox
   \\    /   O peration     | Website:  https://openfoam.org
    \\  /    A nd           | Version:  7
     \\/     M anipulation  |
\*---------------------------------------------------------------------------*/
FoamFile
{
    version     2.0;
    format      ascii;
    class       volVectorField;
    location    "constant";
    object      C;
}
// * * * * * * * * * * * * * * * * * * * * * * * * * * * * * * * * * * * * * //

dimensions      [0 1 0 0 0 0 0];

internalField   nonuniform List<vector> 
3025
(
(0.0005 4.569624892e-05 4.569624892e-05)
(0.0005 0.0001329345423 4.569624891e-05)
(0.0005 0.0002122420817 4.569624891e-05)
(0.0005 0.0002843398448 4.569624891e-05)
(0.0005 0.0003498832659 4.569624891e-05)
(0.0005 0.0004094681941 4.569624891e-05)
(0.0005 0.0004636363106 4.569624891e-05)
(0.0005 0.000512880053 4.569624891e-05)
(0.0005 0.0005576470914 4.569624891e-05)
(0.0005 0.0005983443991 4.569624891e-05)
(0.0005 0.0006353419516 4.569624891e-05)
(0.0005 0.0006689760902 4.569624892e-05)
(0.0005 0.0006995525798 4.569624892e-05)
(0.0005 0.0007273493886 4.569624891e-05)
(0.0005 0.0007526192147 4.569624891e-05)
(0.0005 0.0007755917839 4.569624891e-05)
(0.0005 0.0007964759377 4.569624891e-05)
(0.0005 0.0008154615321 4.569624891e-05)
(0.0005 0.0008327211634 4.569624891e-05)
(0.0005 0.0008484117373 4.569624891e-05)
(0.0005 0.0008626758954 4.569624892e-05)
(0.0005 0.0008756433118 4.569624891e-05)
(0.0005 0.0008874318722 4.569624891e-05)
(0.0005 0.0008981487453 4.569624891e-05)
(0.0005 0.0009078913572 4.569624891e-05)
(0.0005 0.0009167482771 4.569624891e-05)
(0.0005 0.0009248000224 4.569624891e-05)
(0.0005 0.0009321197909 4.569624891e-05)
(0.0005 0.000938774126 4.569624891e-05)
(0.0005 0.0009448235214 4.569624891e-05)
(0.0005 0.0009503229719 4.569624892e-05)
(0.0005 0.0009553224722 4.569624891e-05)
(0.0005 0.0009598674726 4.569624891e-05)
(0.0005 0.0009639992911 4.569624892e-05)
(0.0005 0.0009677554897 4.569624891e-05)
(0.0005 0.0009711702158 4.569624891e-05)
(0.0005 0.0009742745122 4.569624891e-05)
(0.0005 0.0009770965998 4.569624891e-05)
(0.0005 0.000979662134 4.569624891e-05)
(0.0005 0.0009819944379 4.569624891e-05)
(0.0005 0.000984114714 4.569624891e-05)
(0.0005 0.0009860422379 4.569624891e-05)
(0.0005 0.0009877945323 4.569624891e-05)
(0.0005 0.0009893875272 4.569624891e-05)
(0.0005 0.0009908357044 4.569624891e-05)
(0.0005 0.0009921522291 4.569624891e-05)
(0.0005 0.0009933490697 4.569624891e-05)
(0.0005 0.0009944371066 4.569624891e-05)
(0.0005 0.0009954262311 4.569624891e-05)
(0.0005 0.0009963254352 4.569624891e-05)
(0.0005 0.0009971428935 4.569624891e-05)
(0.0005 0.0009978860373 4.569624891e-05)
(0.0005 0.0009985616227 4.569624891e-05)
(0.0005 0.0009991757912 4.569624891e-05)
(0.0005 0.0009997341262 4.569624891e-05)
(0.0005 4.569624891e-05 0.0001329345423)
(0.0005 0.0001329345423 0.0001329345423)
(0.0005 0.0002122420817 0.0001329345423)
(0.0005 0.0002843398448 0.0001329345423)
(0.0005 0.0003498832659 0.0001329345423)
(0.0005 0.0004094681941 0.0001329345423)
(0.0005 0.0004636363107 0.0001329345423)
(0.0005 0.000512880053 0.0001329345423)
(0.0005 0.0005576470914 0.0001329345423)
(0.0005 0.0005983443992 0.0001329345423)
(0.0005 0.0006353419516 0.0001329345423)
(0.0005 0.0006689760901 0.0001329345423)
(0.0005 0.0006995525798 0.0001329345423)
(0.0005 0.0007273493886 0.0001329345423)
(0.0005 0.0007526192147 0.0001329345423)
(0.0005 0.0007755917839 0.0001329345423)
(0.0005 0.0007964759377 0.0001329345423)
(0.0005 0.0008154615321 0.0001329345423)
(0.0005 0.0008327211635 0.0001329345423)
(0.0005 0.0008484117373 0.0001329345423)
(0.0005 0.0008626758954 0.0001329345423)
(0.0005 0.0008756433118 0.0001329345423)
(0.0005 0.0008874318722 0.0001329345423)
(0.0005 0.0008981487453 0.0001329345423)
(0.0005 0.0009078913572 0.0001329345423)
(0.0005 0.0009167482771 0.0001329345423)
(0.0005 0.0009248000224 0.0001329345423)
(0.0005 0.0009321197909 0.0001329345423)
(0.0005 0.0009387741259 0.0001329345423)
(0.0005 0.0009448235214 0.0001329345423)
(0.0005 0.0009503229719 0.0001329345423)
(0.0005 0.0009553224723 0.0001329345423)
(0.0005 0.0009598674726 0.0001329345423)
(0.0005 0.0009639992911 0.0001329345423)
(0.0005 0.0009677554897 0.0001329345423)
(0.0005 0.0009711702158 0.0001329345423)
(0.0005 0.0009742745122 0.0001329345423)
(0.0005 0.0009770965998 0.0001329345423)
(0.0005 0.0009796621341 0.0001329345423)
(0.0005 0.0009819944378 0.0001329345423)
(0.0005 0.000984114714 0.0001329345423)
(0.0005 0.0009860422379 0.0001329345423)
(0.0005 0.0009877945323 0.0001329345423)
(0.0005 0.0009893875272 0.0001329345423)
(0.0005 0.0009908357044 0.0001329345423)
(0.0005 0.000992152229 0.0001329345423)
(0.0005 0.0009933490697 0.0001329345423)
(0.0005 0.0009944371066 0.0001329345423)
(0.0005 0.0009954262311 0.0001329345423)
(0.0005 0.0009963254353 0.0001329345423)
(0.0005 0.0009971428935 0.0001329345423)
(0.0005 0.0009978860373 0.0001329345423)
(0.0005 0.0009985616227 0.0001329345423)
(0.0005 0.0009991757912 0.0001329345423)
(0.0005 0.0009997341262 0.0001329345423)
(0.0005 4.569624891e-05 0.0002122420817)
(0.0005 0.0001329345423 0.0002122420818)
(0.0005 0.0002122420817 0.0002122420817)
(0.0005 0.0002843398448 0.0002122420817)
(0.0005 0.0003498832659 0.0002122420817)
(0.0005 0.0004094681941 0.0002122420817)
(0.0005 0.0004636363107 0.0002122420817)
(0.0005 0.000512880053 0.0002122420817)
(0.0005 0.0005576470914 0.0002122420817)
(0.0005 0.0005983443991 0.0002122420817)
(0.0005 0.0006353419516 0.0002122420817)
(0.0005 0.0006689760902 0.0002122420818)
(0.0005 0.0006995525798 0.0002122420818)
(0.0005 0.0007273493886 0.0002122420817)
(0.0005 0.0007526192147 0.0002122420817)
(0.0005 0.0007755917839 0.0002122420817)
(0.0005 0.0007964759377 0.0002122420817)
(0.0005 0.0008154615321 0.0002122420817)
(0.0005 0.0008327211634 0.0002122420817)
(0.0005 0.0008484117373 0.0002122420817)
(0.0005 0.0008626758954 0.0002122420817)
(0.0005 0.0008756433118 0.0002122420817)
(0.0005 0.0008874318722 0.0002122420817)
(0.0005 0.0008981487453 0.0002122420818)
(0.0005 0.0009078913572 0.0002122420817)
(0.0005 0.0009167482771 0.0002122420817)
(0.0005 0.0009248000224 0.0002122420817)
(0.0005 0.000932119791 0.0002122420817)
(0.0005 0.0009387741259 0.0002122420817)
(0.0005 0.0009448235214 0.0002122420817)
(0.0005 0.0009503229719 0.0002122420817)
(0.0005 0.0009553224722 0.0002122420817)
(0.0005 0.0009598674726 0.0002122420817)
(0.0005 0.0009639992911 0.0002122420817)
(0.0005 0.0009677554897 0.0002122420817)
(0.0005 0.0009711702158 0.0002122420817)
(0.0005 0.0009742745122 0.0002122420817)
(0.0005 0.0009770965998 0.0002122420817)
(0.0005 0.000979662134 0.0002122420817)
(0.0005 0.0009819944378 0.0002122420817)
(0.0005 0.000984114714 0.0002122420817)
(0.0005 0.0009860422379 0.0002122420817)
(0.0005 0.0009877945323 0.0002122420817)
(0.0005 0.0009893875272 0.0002122420817)
(0.0005 0.0009908357044 0.0002122420817)
(0.0005 0.000992152229 0.0002122420817)
(0.0005 0.0009933490697 0.0002122420817)
(0.0005 0.0009944371066 0.0002122420817)
(0.0005 0.0009954262311 0.0002122420817)
(0.0005 0.0009963254353 0.0002122420817)
(0.0005 0.0009971428935 0.0002122420817)
(0.0005 0.0009978860373 0.0002122420817)
(0.0005 0.0009985616227 0.0002122420817)
(0.0005 0.0009991757912 0.0002122420818)
(0.0005 0.0009997341262 0.0002122420817)
(0.0005 4.569624891e-05 0.0002843398448)
(0.0005 0.0001329345423 0.0002843398449)
(0.0005 0.0002122420817 0.0002843398449)
(0.0005 0.0002843398449 0.0002843398449)
(0.0005 0.0003498832659 0.0002843398449)
(0.0005 0.0004094681941 0.0002843398449)
(0.0005 0.0004636363106 0.0002843398449)
(0.0005 0.000512880053 0.0002843398448)
(0.0005 0.0005576470914 0.0002843398448)
(0.0005 0.0005983443991 0.0002843398448)
(0.0005 0.0006353419516 0.0002843398449)
(0.0005 0.0006689760902 0.0002843398449)
(0.0005 0.0006995525798 0.0002843398448)
(0.0005 0.0007273493886 0.0002843398449)
(0.0005 0.0007526192147 0.0002843398448)
(0.0005 0.0007755917839 0.0002843398448)
(0.0005 0.0007964759377 0.0002843398449)
(0.0005 0.0008154615321 0.0002843398449)
(0.0005 0.0008327211634 0.0002843398449)
(0.0005 0.0008484117373 0.0002843398449)
(0.0005 0.0008626758954 0.0002843398449)
(0.0005 0.0008756433118 0.0002843398448)
(0.0005 0.0008874318722 0.0002843398448)
(0.0005 0.0008981487453 0.0002843398449)
(0.0005 0.0009078913572 0.0002843398449)
(0.0005 0.0009167482771 0.0002843398448)
(0.0005 0.0009248000225 0.0002843398449)
(0.0005 0.000932119791 0.0002843398449)
(0.0005 0.000938774126 0.0002843398449)
(0.0005 0.0009448235214 0.0002843398448)
(0.0005 0.0009503229719 0.0002843398449)
(0.0005 0.0009553224722 0.0002843398448)
(0.0005 0.0009598674726 0.0002843398449)
(0.0005 0.0009639992911 0.0002843398448)
(0.0005 0.0009677554897 0.0002843398449)
(0.0005 0.0009711702158 0.0002843398449)
(0.0005 0.0009742745122 0.0002843398448)
(0.0005 0.0009770965998 0.0002843398448)
(0.0005 0.000979662134 0.0002843398448)
(0.0005 0.0009819944378 0.0002843398449)
(0.0005 0.000984114714 0.0002843398448)
(0.0005 0.0009860422379 0.0002843398448)
(0.0005 0.0009877945323 0.0002843398448)
(0.0005 0.0009893875272 0.0002843398449)
(0.0005 0.0009908357044 0.0002843398448)
(0.0005 0.0009921522291 0.0002843398448)
(0.0005 0.0009933490697 0.0002843398449)
(0.0005 0.0009944371066 0.0002843398449)
(0.0005 0.0009954262311 0.0002843398448)
(0.0005 0.0009963254352 0.0002843398448)
(0.0005 0.0009971428935 0.0002843398449)
(0.0005 0.0009978860374 0.0002843398449)
(0.0005 0.0009985616227 0.0002843398448)
(0.0005 0.0009991757912 0.0002843398449)
(0.0005 0.0009997341262 0.0002843398449)
(0.0005 4.569624891e-05 0.0003498832659)
(0.0005 0.0001329345423 0.0003498832659)
(0.0005 0.0002122420817 0.0003498832659)
(0.0005 0.0002843398449 0.0003498832659)
(0.0005 0.0003498832659 0.0003498832659)
(0.0005 0.0004094681941 0.0003498832659)
(0.0005 0.0004636363106 0.0003498832659)
(0.0005 0.000512880053 0.0003498832659)
(0.0005 0.0005576470915 0.0003498832659)
(0.0005 0.0005983443992 0.0003498832659)
(0.0005 0.0006353419516 0.0003498832659)
(0.0005 0.0006689760901 0.0003498832659)
(0.0005 0.0006995525798 0.0003498832659)
(0.0005 0.0007273493886 0.0003498832659)
(0.0005 0.0007526192147 0.0003498832659)
(0.0005 0.0007755917839 0.0003498832659)
(0.0005 0.0007964759377 0.0003498832659)
(0.0005 0.0008154615321 0.0003498832659)
(0.0005 0.0008327211634 0.0003498832659)
(0.0005 0.0008484117374 0.0003498832659)
(0.0005 0.0008626758954 0.0003498832659)
(0.0005 0.0008756433118 0.0003498832659)
(0.0005 0.0008874318722 0.0003498832659)
(0.0005 0.0008981487453 0.0003498832659)
(0.0005 0.0009078913572 0.0003498832659)
(0.0005 0.0009167482771 0.0003498832659)
(0.0005 0.0009248000225 0.0003498832659)
(0.0005 0.0009321197909 0.0003498832659)
(0.0005 0.0009387741259 0.0003498832659)
(0.0005 0.0009448235214 0.0003498832659)
(0.0005 0.0009503229719 0.0003498832659)
(0.0005 0.0009553224722 0.0003498832659)
(0.0005 0.0009598674726 0.0003498832659)
(0.0005 0.0009639992911 0.0003498832659)
(0.0005 0.0009677554897 0.0003498832659)
(0.0005 0.0009711702158 0.0003498832659)
(0.0005 0.0009742745122 0.0003498832659)
(0.0005 0.0009770965998 0.0003498832659)
(0.0005 0.0009796621341 0.0003498832659)
(0.0005 0.0009819944379 0.0003498832659)
(0.0005 0.0009841147141 0.0003498832659)
(0.0005 0.0009860422379 0.0003498832659)
(0.0005 0.0009877945323 0.0003498832659)
(0.0005 0.0009893875272 0.0003498832659)
(0.0005 0.0009908357044 0.0003498832659)
(0.0005 0.0009921522291 0.0003498832659)
(0.0005 0.0009933490697 0.0003498832659)
(0.0005 0.0009944371066 0.0003498832659)
(0.0005 0.0009954262311 0.0003498832659)
(0.0005 0.0009963254353 0.0003498832659)
(0.0005 0.0009971428935 0.0003498832659)
(0.0005 0.0009978860373 0.0003498832659)
(0.0005 0.0009985616227 0.0003498832659)
(0.0005 0.0009991757912 0.0003498832659)
(0.0005 0.0009997341262 0.0003498832659)
(0.0005 4.569624891e-05 0.0004094681941)
(0.0005 0.0001329345423 0.0004094681941)
(0.0005 0.0002122420817 0.0004094681941)
(0.0005 0.0002843398448 0.0004094681941)
(0.0005 0.0003498832659 0.0004094681941)
(0.0005 0.0004094681941 0.0004094681941)
(0.0005 0.0004636363106 0.0004094681941)
(0.0005 0.000512880053 0.0004094681941)
(0.0005 0.0005576470914 0.0004094681941)
(0.0005 0.0005983443991 0.0004094681941)
(0.0005 0.0006353419516 0.0004094681941)
(0.0005 0.0006689760902 0.0004094681941)
(0.0005 0.0006995525798 0.0004094681941)
(0.0005 0.0007273493886 0.0004094681941)
(0.0005 0.0007526192147 0.0004094681941)
(0.0005 0.0007755917839 0.0004094681941)
(0.0005 0.0007964759377 0.0004094681941)
(0.0005 0.0008154615322 0.0004094681941)
(0.0005 0.0008327211634 0.0004094681941)
(0.0005 0.0008484117374 0.0004094681941)
(0.0005 0.0008626758954 0.0004094681941)
(0.0005 0.0008756433118 0.0004094681941)
(0.0005 0.0008874318722 0.0004094681941)
(0.0005 0.0008981487453 0.0004094681941)
(0.0005 0.0009078913572 0.0004094681941)
(0.0005 0.0009167482771 0.0004094681941)
(0.0005 0.0009248000224 0.0004094681941)
(0.0005 0.000932119791 0.0004094681941)
(0.0005 0.0009387741259 0.0004094681941)
(0.0005 0.0009448235214 0.0004094681941)
(0.0005 0.0009503229719 0.0004094681941)
(0.0005 0.0009553224722 0.0004094681941)
(0.0005 0.0009598674726 0.0004094681941)
(0.0005 0.0009639992911 0.0004094681941)
(0.0005 0.0009677554897 0.0004094681941)
(0.0005 0.0009711702158 0.0004094681941)
(0.0005 0.0009742745122 0.0004094681941)
(0.0005 0.0009770965998 0.0004094681941)
(0.0005 0.000979662134 0.0004094681941)
(0.0005 0.0009819944378 0.0004094681941)
(0.0005 0.000984114714 0.0004094681941)
(0.0005 0.0009860422379 0.0004094681941)
(0.0005 0.0009877945323 0.0004094681941)
(0.0005 0.0009893875272 0.0004094681941)
(0.0005 0.0009908357044 0.0004094681941)
(0.0005 0.0009921522291 0.0004094681941)
(0.0005 0.0009933490697 0.0004094681941)
(0.0005 0.0009944371066 0.0004094681941)
(0.0005 0.0009954262312 0.0004094681941)
(0.0005 0.0009963254352 0.0004094681941)
(0.0005 0.0009971428935 0.0004094681941)
(0.0005 0.0009978860373 0.0004094681941)
(0.0005 0.0009985616227 0.0004094681941)
(0.0005 0.0009991757912 0.0004094681941)
(0.0005 0.0009997341262 0.0004094681941)
(0.0005 4.569624891e-05 0.0004636363106)
(0.0005 0.0001329345423 0.0004636363107)
(0.0005 0.0002122420817 0.0004636363106)
(0.0005 0.0002843398448 0.0004636363106)
(0.0005 0.0003498832659 0.0004636363106)
(0.0005 0.0004094681941 0.0004636363107)
(0.0005 0.0004636363107 0.0004636363107)
(0.0005 0.000512880053 0.0004636363107)
(0.0005 0.0005576470915 0.0004636363106)
(0.0005 0.0005983443991 0.0004636363106)
(0.0005 0.0006353419516 0.0004636363106)
(0.0005 0.0006689760901 0.0004636363106)
(0.0005 0.0006995525798 0.0004636363107)
(0.0005 0.0007273493886 0.0004636363107)
(0.0005 0.0007526192147 0.0004636363106)
(0.0005 0.0007755917839 0.0004636363106)
(0.0005 0.0007964759377 0.0004636363107)
(0.0005 0.0008154615322 0.0004636363107)
(0.0005 0.0008327211634 0.0004636363107)
(0.0005 0.0008484117373 0.0004636363107)
(0.0005 0.0008626758954 0.0004636363106)
(0.0005 0.0008756433118 0.0004636363106)
(0.0005 0.0008874318722 0.0004636363106)
(0.0005 0.0008981487453 0.0004636363107)
(0.0005 0.0009078913572 0.0004636363107)
(0.0005 0.0009167482771 0.0004636363106)
(0.0005 0.0009248000224 0.0004636363106)
(0.0005 0.0009321197909 0.0004636363106)
(0.0005 0.0009387741259 0.0004636363106)
(0.0005 0.0009448235215 0.0004636363106)
(0.0005 0.0009503229719 0.0004636363106)
(0.0005 0.0009553224722 0.0004636363107)
(0.0005 0.0009598674726 0.0004636363106)
(0.0005 0.0009639992911 0.0004636363107)
(0.0005 0.0009677554898 0.0004636363106)
(0.0005 0.0009711702158 0.0004636363106)
(0.0005 0.0009742745122 0.0004636363107)
(0.0005 0.0009770965998 0.0004636363106)
(0.0005 0.0009796621341 0.0004636363107)
(0.0005 0.0009819944379 0.0004636363107)
(0.0005 0.000984114714 0.0004636363107)
(0.0005 0.0009860422379 0.0004636363107)
(0.0005 0.0009877945323 0.0004636363106)
(0.0005 0.0009893875272 0.0004636363107)
(0.0005 0.0009908357044 0.0004636363107)
(0.0005 0.0009921522291 0.0004636363107)
(0.0005 0.0009933490697 0.0004636363107)
(0.0005 0.0009944371066 0.0004636363107)
(0.0005 0.0009954262311 0.0004636363106)
(0.0005 0.0009963254353 0.0004636363106)
(0.0005 0.0009971428935 0.0004636363106)
(0.0005 0.0009978860374 0.0004636363106)
(0.0005 0.0009985616227 0.0004636363106)
(0.0005 0.0009991757912 0.0004636363107)
(0.0005 0.0009997341262 0.0004636363107)
(0.0005 4.569624891e-05 0.000512880053)
(0.0005 0.0001329345423 0.000512880053)
(0.0005 0.0002122420817 0.000512880053)
(0.0005 0.0002843398448 0.000512880053)
(0.0005 0.0003498832659 0.000512880053)
(0.0005 0.0004094681941 0.000512880053)
(0.0005 0.0004636363107 0.000512880053)
(0.0005 0.000512880053 0.000512880053)
(0.0005 0.0005576470915 0.000512880053)
(0.0005 0.0005983443991 0.000512880053)
(0.0005 0.0006353419516 0.000512880053)
(0.0005 0.0006689760901 0.000512880053)
(0.0005 0.0006995525798 0.000512880053)
(0.0005 0.0007273493886 0.000512880053)
(0.0005 0.0007526192147 0.000512880053)
(0.0005 0.0007755917839 0.000512880053)
(0.0005 0.0007964759378 0.000512880053)
(0.0005 0.0008154615322 0.000512880053)
(0.0005 0.0008327211634 0.000512880053)
(0.0005 0.0008484117373 0.000512880053)
(0.0005 0.0008626758954 0.000512880053)
(0.0005 0.0008756433118 0.000512880053)
(0.0005 0.0008874318722 0.000512880053)
(0.0005 0.0008981487453 0.000512880053)
(0.0005 0.0009078913572 0.000512880053)
(0.0005 0.0009167482771 0.000512880053)
(0.0005 0.0009248000224 0.000512880053)
(0.0005 0.0009321197909 0.000512880053)
(0.0005 0.0009387741259 0.000512880053)
(0.0005 0.0009448235215 0.000512880053)
(0.0005 0.0009503229719 0.000512880053)
(0.0005 0.0009553224722 0.000512880053)
(0.0005 0.0009598674726 0.000512880053)
(0.0005 0.0009639992911 0.000512880053)
(0.0005 0.0009677554897 0.000512880053)
(0.0005 0.0009711702158 0.000512880053)
(0.0005 0.0009742745122 0.000512880053)
(0.0005 0.0009770965999 0.000512880053)
(0.0005 0.000979662134 0.000512880053)
(0.0005 0.0009819944379 0.000512880053)
(0.0005 0.000984114714 0.000512880053)
(0.0005 0.0009860422379 0.000512880053)
(0.0005 0.0009877945323 0.000512880053)
(0.0005 0.0009893875272 0.000512880053)
(0.0005 0.0009908357044 0.000512880053)
(0.0005 0.000992152229 0.000512880053)
(0.0005 0.0009933490697 0.000512880053)
(0.0005 0.0009944371066 0.000512880053)
(0.0005 0.0009954262311 0.000512880053)
(0.0005 0.0009963254352 0.000512880053)
(0.0005 0.0009971428935 0.000512880053)
(0.0005 0.0009978860374 0.000512880053)
(0.0005 0.0009985616227 0.000512880053)
(0.0005 0.0009991757912 0.000512880053)
(0.0005 0.0009997341262 0.000512880053)
(0.0005 4.569624891e-05 0.0005576470915)
(0.0005 0.0001329345423 0.0005576470914)
(0.0005 0.0002122420818 0.0005576470915)
(0.0005 0.0002843398448 0.0005576470914)
(0.0005 0.0003498832659 0.0005576470914)
(0.0005 0.0004094681941 0.0005576470914)
(0.0005 0.0004636363106 0.0005576470915)
(0.0005 0.000512880053 0.0005576470914)
(0.0005 0.0005576470915 0.0005576470915)
(0.0005 0.0005983443991 0.0005576470915)
(0.0005 0.0006353419516 0.0005576470915)
(0.0005 0.0006689760901 0.0005576470914)
(0.0005 0.0006995525798 0.0005576470915)
(0.0005 0.0007273493886 0.0005576470914)
(0.0005 0.0007526192147 0.0005576470915)
(0.0005 0.0007755917839 0.0005576470915)
(0.0005 0.0007964759377 0.0005576470914)
(0.0005 0.0008154615321 0.0005576470915)
(0.0005 0.0008327211634 0.0005576470915)
(0.0005 0.0008484117373 0.0005576470914)
(0.0005 0.0008626758954 0.0005576470915)
(0.0005 0.0008756433118 0.0005576470915)
(0.0005 0.0008874318722 0.0005576470915)
(0.0005 0.0008981487453 0.0005576470914)
(0.0005 0.0009078913572 0.0005576470914)
(0.0005 0.0009167482771 0.0005576470915)
(0.0005 0.0009248000224 0.0005576470915)
(0.0005 0.0009321197909 0.0005576470915)
(0.0005 0.0009387741259 0.0005576470915)
(0.0005 0.0009448235214 0.0005576470914)
(0.0005 0.0009503229719 0.0005576470915)
(0.0005 0.0009553224722 0.0005576470914)
(0.0005 0.0009598674726 0.0005576470914)
(0.0005 0.0009639992911 0.0005576470914)
(0.0005 0.0009677554898 0.0005576470915)
(0.0005 0.0009711702158 0.0005576470914)
(0.0005 0.0009742745122 0.0005576470915)
(0.0005 0.0009770965999 0.0005576470915)
(0.0005 0.000979662134 0.0005576470914)
(0.0005 0.0009819944379 0.0005576470915)
(0.0005 0.0009841147141 0.0005576470915)
(0.0005 0.0009860422379 0.0005576470915)
(0.0005 0.0009877945323 0.0005576470915)
(0.0005 0.0009893875272 0.0005576470915)
(0.0005 0.0009908357044 0.0005576470914)
(0.0005 0.0009921522291 0.0005576470915)
(0.0005 0.0009933490697 0.0005576470914)
(0.0005 0.0009944371066 0.0005576470915)
(0.0005 0.0009954262312 0.0005576470914)
(0.0005 0.0009963254352 0.0005576470914)
(0.0005 0.0009971428935 0.0005576470915)
(0.0005 0.0009978860374 0.0005576470915)
(0.0005 0.0009985616227 0.0005576470915)
(0.0005 0.0009991757912 0.0005576470915)
(0.0005 0.0009997341262 0.0005576470915)
(0.0005 4.569624891e-05 0.0005983443991)
(0.0005 0.0001329345423 0.0005983443992)
(0.0005 0.0002122420817 0.0005983443991)
(0.0005 0.0002843398448 0.0005983443991)
(0.0005 0.0003498832659 0.0005983443991)
(0.0005 0.0004094681941 0.0005983443991)
(0.0005 0.0004636363107 0.0005983443991)
(0.0005 0.000512880053 0.0005983443991)
(0.0005 0.0005576470915 0.0005983443991)
(0.0005 0.0005983443991 0.0005983443991)
(0.0005 0.0006353419516 0.0005983443991)
(0.0005 0.0006689760901 0.0005983443991)
(0.0005 0.0006995525798 0.0005983443991)
(0.0005 0.0007273493886 0.0005983443991)
(0.0005 0.0007526192147 0.0005983443992)
(0.0005 0.0007755917839 0.0005983443991)
(0.0005 0.0007964759377 0.0005983443991)
(0.0005 0.0008154615321 0.0005983443991)
(0.0005 0.0008327211634 0.0005983443991)
(0.0005 0.0008484117374 0.0005983443991)
(0.0005 0.0008626758954 0.0005983443991)
(0.0005 0.0008756433118 0.0005983443991)
(0.0005 0.0008874318722 0.0005983443991)
(0.0005 0.0008981487453 0.0005983443991)
(0.0005 0.0009078913572 0.0005983443991)
(0.0005 0.0009167482771 0.0005983443991)
(0.0005 0.0009248000224 0.0005983443991)
(0.0005 0.000932119791 0.0005983443992)
(0.0005 0.000938774126 0.0005983443992)
(0.0005 0.0009448235214 0.0005983443991)
(0.0005 0.0009503229719 0.0005983443992)
(0.0005 0.0009553224722 0.0005983443991)
(0.0005 0.0009598674726 0.0005983443992)
(0.0005 0.0009639992911 0.0005983443991)
(0.0005 0.0009677554897 0.0005983443992)
(0.0005 0.0009711702158 0.0005983443991)
(0.0005 0.0009742745122 0.0005983443991)
(0.0005 0.0009770965998 0.0005983443991)
(0.0005 0.000979662134 0.0005983443991)
(0.0005 0.0009819944379 0.0005983443992)
(0.0005 0.0009841147141 0.0005983443992)
(0.0005 0.0009860422379 0.0005983443991)
(0.0005 0.0009877945323 0.0005983443992)
(0.0005 0.0009893875272 0.0005983443991)
(0.0005 0.0009908357044 0.0005983443991)
(0.0005 0.000992152229 0.0005983443991)
(0.0005 0.0009933490697 0.0005983443992)
(0.0005 0.0009944371066 0.0005983443991)
(0.0005 0.0009954262311 0.0005983443992)
(0.0005 0.0009963254353 0.0005983443992)
(0.0005 0.0009971428935 0.0005983443991)
(0.0005 0.0009978860373 0.0005983443991)
(0.0005 0.0009985616227 0.0005983443992)
(0.0005 0.0009991757912 0.0005983443991)
(0.0005 0.0009997341262 0.0005983443991)
(0.0005 4.569624891e-05 0.0006353419516)
(0.0005 0.0001329345423 0.0006353419516)
(0.0005 0.0002122420817 0.0006353419516)
(0.0005 0.0002843398448 0.0006353419516)
(0.0005 0.0003498832659 0.0006353419516)
(0.0005 0.0004094681941 0.0006353419516)
(0.0005 0.0004636363106 0.0006353419516)
(0.0005 0.000512880053 0.0006353419516)
(0.0005 0.0005576470915 0.0006353419516)
(0.0005 0.0005983443991 0.0006353419516)
(0.0005 0.0006353419516 0.0006353419516)
(0.0005 0.0006689760902 0.0006353419516)
(0.0005 0.0006995525798 0.0006353419516)
(0.0005 0.0007273493886 0.0006353419516)
(0.0005 0.0007526192147 0.0006353419516)
(0.0005 0.0007755917839 0.0006353419516)
(0.0005 0.0007964759377 0.0006353419516)
(0.0005 0.0008154615322 0.0006353419516)
(0.0005 0.0008327211634 0.0006353419516)
(0.0005 0.0008484117373 0.0006353419516)
(0.0005 0.0008626758954 0.0006353419516)
(0.0005 0.0008756433118 0.0006353419516)
(0.0005 0.0008874318722 0.0006353419516)
(0.0005 0.0008981487453 0.0006353419516)
(0.0005 0.0009078913572 0.0006353419516)
(0.0005 0.0009167482771 0.0006353419516)
(0.0005 0.0009248000225 0.0006353419516)
(0.0005 0.000932119791 0.0006353419516)
(0.0005 0.0009387741259 0.0006353419516)
(0.0005 0.0009448235215 0.0006353419516)
(0.0005 0.0009503229719 0.0006353419516)
(0.0005 0.0009553224723 0.0006353419516)
(0.0005 0.0009598674726 0.0006353419516)
(0.0005 0.0009639992911 0.0006353419516)
(0.0005 0.0009677554898 0.0006353419516)
(0.0005 0.0009711702158 0.0006353419516)
(0.0005 0.0009742745122 0.0006353419516)
(0.0005 0.0009770965998 0.0006353419516)
(0.0005 0.0009796621341 0.0006353419516)
(0.0005 0.0009819944379 0.0006353419516)
(0.0005 0.0009841147141 0.0006353419516)
(0.0005 0.0009860422379 0.0006353419516)
(0.0005 0.0009877945323 0.0006353419516)
(0.0005 0.0009893875272 0.0006353419516)
(0.0005 0.0009908357044 0.0006353419516)
(0.0005 0.000992152229 0.0006353419516)
(0.0005 0.0009933490697 0.0006353419516)
(0.0005 0.0009944371066 0.0006353419516)
(0.0005 0.0009954262312 0.0006353419516)
(0.0005 0.0009963254353 0.0006353419516)
(0.0005 0.0009971428935 0.0006353419516)
(0.0005 0.0009978860374 0.0006353419516)
(0.0005 0.0009985616227 0.0006353419516)
(0.0005 0.0009991757912 0.0006353419516)
(0.0005 0.0009997341262 0.0006353419516)
(0.0005 4.569624892e-05 0.0006689760902)
(0.0005 0.0001329345423 0.0006689760901)
(0.0005 0.0002122420817 0.0006689760901)
(0.0005 0.0002843398449 0.0006689760902)
(0.0005 0.0003498832659 0.0006689760901)
(0.0005 0.0004094681941 0.0006689760901)
(0.0005 0.0004636363107 0.0006689760901)
(0.0005 0.000512880053 0.0006689760901)
(0.0005 0.0005576470914 0.0006689760901)
(0.0005 0.0005983443991 0.0006689760902)
(0.0005 0.0006353419516 0.0006689760901)
(0.0005 0.0006689760902 0.0006689760902)
(0.0005 0.0006995525798 0.0006689760901)
(0.0005 0.0007273493886 0.0006689760902)
(0.0005 0.0007526192147 0.0006689760902)
(0.0005 0.0007755917839 0.0006689760901)
(0.0005 0.0007964759377 0.0006689760901)
(0.0005 0.0008154615321 0.0006689760901)
(0.0005 0.0008327211634 0.0006689760901)
(0.0005 0.0008484117374 0.0006689760901)
(0.0005 0.0008626758954 0.0006689760902)
(0.0005 0.0008756433118 0.0006689760901)
(0.0005 0.0008874318722 0.0006689760901)
(0.0005 0.0008981487453 0.0006689760902)
(0.0005 0.0009078913572 0.0006689760902)
(0.0005 0.0009167482771 0.0006689760901)
(0.0005 0.0009248000224 0.0006689760901)
(0.0005 0.000932119791 0.0006689760901)
(0.0005 0.0009387741259 0.0006689760901)
(0.0005 0.0009448235215 0.0006689760901)
(0.0005 0.0009503229719 0.0006689760901)
(0.0005 0.0009553224722 0.0006689760902)
(0.0005 0.0009598674726 0.0006689760902)
(0.0005 0.0009639992911 0.0006689760901)
(0.0005 0.0009677554897 0.0006689760901)
(0.0005 0.0009711702158 0.0006689760902)
(0.0005 0.0009742745122 0.0006689760901)
(0.0005 0.0009770965998 0.0006689760902)
(0.0005 0.000979662134 0.0006689760901)
(0.0005 0.0009819944378 0.0006689760902)
(0.0005 0.000984114714 0.0006689760902)
(0.0005 0.0009860422379 0.0006689760901)
(0.0005 0.0009877945323 0.0006689760901)
(0.0005 0.0009893875272 0.0006689760901)
(0.0005 0.0009908357043 0.0006689760901)
(0.0005 0.000992152229 0.0006689760901)
(0.0005 0.0009933490697 0.0006689760901)
(0.0005 0.0009944371067 0.0006689760902)
(0.0005 0.0009954262312 0.0006689760902)
(0.0005 0.0009963254352 0.0006689760901)
(0.0005 0.0009971428935 0.0006689760901)
(0.0005 0.0009978860373 0.0006689760901)
(0.0005 0.0009985616227 0.0006689760902)
(0.0005 0.0009991757912 0.0006689760902)
(0.0005 0.0009997341262 0.0006689760902)
(0.0005 4.569624892e-05 0.0006995525798)
(0.0005 0.0001329345423 0.0006995525798)
(0.0005 0.0002122420817 0.0006995525798)
(0.0005 0.0002843398449 0.0006995525798)
(0.0005 0.0003498832659 0.0006995525798)
(0.0005 0.0004094681941 0.0006995525798)
(0.0005 0.0004636363106 0.0006995525798)
(0.0005 0.000512880053 0.0006995525798)
(0.0005 0.0005576470914 0.0006995525798)
(0.0005 0.0005983443991 0.0006995525798)
(0.0005 0.0006353419516 0.0006995525798)
(0.0005 0.0006689760902 0.0006995525798)
(0.0005 0.0006995525798 0.0006995525798)
(0.0005 0.0007273493886 0.0006995525798)
(0.0005 0.0007526192147 0.0006995525798)
(0.0005 0.0007755917839 0.0006995525798)
(0.0005 0.0007964759377 0.0006995525798)
(0.0005 0.0008154615322 0.0006995525798)
(0.0005 0.0008327211634 0.0006995525798)
(0.0005 0.0008484117373 0.0006995525798)
(0.0005 0.0008626758954 0.0006995525798)
(0.0005 0.0008756433118 0.0006995525798)
(0.0005 0.0008874318722 0.0006995525798)
(0.0005 0.0008981487453 0.0006995525798)
(0.0005 0.0009078913572 0.0006995525798)
(0.0005 0.0009167482771 0.0006995525798)
(0.0005 0.0009248000225 0.0006995525798)
(0.0005 0.000932119791 0.0006995525798)
(0.0005 0.0009387741259 0.0006995525798)
(0.0005 0.0009448235215 0.0006995525798)
(0.0005 0.0009503229719 0.0006995525798)
(0.0005 0.0009553224722 0.0006995525798)
(0.0005 0.0009598674726 0.0006995525798)
(0.0005 0.0009639992911 0.0006995525798)
(0.0005 0.0009677554897 0.0006995525798)
(0.0005 0.0009711702158 0.0006995525798)
(0.0005 0.0009742745122 0.0006995525798)
(0.0005 0.0009770965998 0.0006995525798)
(0.0005 0.000979662134 0.0006995525798)
(0.0005 0.0009819944378 0.0006995525798)
(0.0005 0.000984114714 0.0006995525798)
(0.0005 0.0009860422379 0.0006995525798)
(0.0005 0.0009877945323 0.0006995525798)
(0.0005 0.0009893875272 0.0006995525798)
(0.0005 0.0009908357044 0.0006995525798)
(0.0005 0.000992152229 0.0006995525798)
(0.0005 0.0009933490697 0.0006995525798)
(0.0005 0.0009944371066 0.0006995525798)
(0.0005 0.0009954262311 0.0006995525798)
(0.0005 0.0009963254353 0.0006995525798)
(0.0005 0.0009971428935 0.0006995525798)
(0.0005 0.0009978860373 0.0006995525798)
(0.0005 0.0009985616227 0.0006995525798)
(0.0005 0.0009991757912 0.0006995525798)
(0.0005 0.0009997341262 0.0006995525798)
(0.0005 4.569624891e-05 0.0007273493886)
(0.0005 0.0001329345423 0.0007273493886)