/*--------------------------------*- C++ -*----------------------------------*\
  =========                 |
  \\      /  F ield         | OpenFOAM: The Open Source CFD Toolbox
   \\    /   O peration     | Website:  https://openfoam.org
    \\  /    A nd           | Version:  7
     \\/     M anipulation  |
\*---------------------------------------------------------------------------*/
FoamFile
{
    version     2.0;
    format      ascii;
    class       volScalarField;
    location    "constant";
    object      V;
}
// * * * * * * * * * * * * * * * * * * * * * * * * * * * * * * * * * * * * * //

dimensions      [0 3 0 0 0 0 0];

internalField   nonuniform List<scalar> 
3025
(
8.35258866e-12
7.593262421e-12
6.902965831e-12
6.275423485e-12
5.704930447e-12
5.186300395e-12
4.714818553e-12
4.286198678e-12
3.896544251e-12
3.542312961e-12
3.220284503e-12
2.927531366e-12
2.661392162e-12
2.419447414e-12
2.19949764e-12
1.999543321e-12
1.81776665e-12
1.65251514e-12
1.502286492e-12
1.36571499e-12
1.241559077e-12
1.128690073e-12
1.026081888e-12
9.328017149e-13
8.48001559e-13
7.709105065e-13
7.008277324e-13
6.371161212e-13
5.791964729e-13
5.265422573e-13
4.786747694e-13
4.351588804e-13
3.955989888e-13
3.596354378e-13
3.269413162e-13
2.9721937e-13
2.70199434e-13
2.456358449e-13
2.233053127e-13
2.030048272e-13
1.845498488e-13
1.677725898e-13
1.525205345e-13
1.386550314e-13
1.260500227e-13
1.145909389e-13
1.041735741e-13
9.470325504e-14
8.60938624e-14
7.826715511e-14
7.115194756e-14
6.468359783e-14
5.880326743e-14
5.345751917e-14
4.859774138e-14
7.593262421e-12
6.90296584e-12
6.275423485e-12
5.704930443e-12
5.186300409e-12
4.714818543e-12
4.286198687e-12
3.896544255e-12
3.542312956e-12
3.220284511e-12
2.927531368e-12
2.661392152e-12
2.419447421e-12
2.19949765e-12
1.99954331e-12
1.817766656e-12
1.652515137e-12
1.502286492e-12
1.365714993e-12
1.241559083e-12
1.12869007e-12
1.026081885e-12
9.328017169e-13
8.480015593e-13
7.709105085e-13
7.008277335e-13
6.371161206e-13
5.79196474e-13
5.265422483e-13
4.786747795e-13
4.351588814e-13
3.955989824e-13
3.596354445e-13
3.269413072e-13
2.972193785e-13
2.701994274e-13
2.456358492e-13
2.233053136e-13
2.030048298e-13
1.84549843e-13
1.677725899e-13
1.525205362e-13
1.386550314e-13
1.260500286e-13
1.145909298e-13
1.041735808e-13
9.470324926e-14
8.609386825e-14
7.826714767e-14
7.115195922e-14
6.468358872e-14
5.880327078e-14
5.345751587e-14
4.859774472e-14
4.417976491e-14
6.902965831e-12
6.275423485e-12
5.704930435e-12
5.186300398e-12
4.714818549e-12
4.286198671e-12
3.896544257e-12
3.542312955e-12
3.220284503e-12
2.927531371e-12
2.66139215e-12
2.419447408e-12
2.199497654e-12
1.999543316e-12
1.817766644e-12
1.65251514e-12
1.502286487e-12
1.365714991e-12
1.241559084e-12
1.128690074e-12
1.026081881e-12
9.32801713e-13
8.4800156e-13
7.709105077e-13
7.008277343e-13
6.371161207e-13
5.791964727e-13
5.265422486e-13
4.786747708e-13
4.351588901e-13
3.955989827e-13
3.596354382e-13
3.269413129e-13
2.972193699e-13
2.701994347e-13
2.456358429e-13
2.233053172e-13
2.030048304e-13
1.845498451e-13
1.677725844e-13
1.525205361e-13
1.386550328e-13
1.260500285e-13
1.14590935e-13
1.041735724e-13
9.470325521e-14
8.609386288e-14
7.826715288e-14
7.115195236e-14
6.468359923e-14
5.880326242e-14
5.345751884e-14
4.859774165e-14
4.417976789e-14
4.01634226e-14
6.275423485e-12
5.704930443e-12
5.186300398e-12
4.714818545e-12
4.286198683e-12
3.896544248e-12
3.542312962e-12
3.220284506e-12
2.927531367e-12
2.661392156e-12
2.41944741e-12
2.199497645e-12
1.999543322e-12
1.817766652e-12
1.652515132e-12
1.502286492e-12
1.365714988e-12
1.241559083e-12
1.128690076e-12
1.026081886e-12
9.328017106e-13
8.480015576e-13
7.709105094e-13
7.008277346e-13
6.371161223e-13
5.791964736e-13
5.265422481e-13
4.786747716e-13
4.351588827e-13
3.955989911e-13
3.59635439e-13
3.269413075e-13
2.972193755e-13
2.701994273e-13
2.456358498e-13
2.233053118e-13
2.030048339e-13
1.845498459e-13
1.677725865e-13
1.525205313e-13
1.386550329e-13
1.260500299e-13
1.14590935e-13
1.041735773e-13
9.47032477e-14
8.609386841e-14
7.826714811e-14
7.115195719e-14
6.468359308e-14
5.880327205e-14
5.345751131e-14
4.859774442e-14
4.417976516e-14
4.016342537e-14
3.651220238e-14
5.704930447e-12
5.186300409e-12
4.714818549e-12
4.286198683e-12
3.896544261e-12
3.542312957e-12
3.220284515e-12
2.927531373e-12
2.661392155e-12
2.419447418e-12
2.199497648e-12
1.999543316e-12
1.817766659e-12
1.65251514e-12
1.502286485e-12
1.365714994e-12
1.241559082e-12
1.128690077e-12
1.026081889e-12
9.328017155e-13
8.480015561e-13
7.709105078e-13
7.008277366e-13
6.371161231e-13
5.791964755e-13
5.265422494e-13
4.786747716e-13
4.351588838e-13
3.955989847e-13
3.596354469e-13
3.269413085e-13
2.972193708e-13
2.701994326e-13
2.456358433e-13
2.233053183e-13
2.030048291e-13
1.845498492e-13
1.677725874e-13
1.525205334e-13
1.386550287e-13
1.2605003e-13
1.145909364e-13
1.041735774e-13
9.470325218e-14
8.609386164e-14
7.826715319e-14
7.115195291e-14
6.468359752e-14
5.88032665e-14
5.345752011e-14
4.859773761e-14
4.417976771e-14
4.016342292e-14
3.651220492e-14
3.31929113e-14
5.186300395e-12
4.714818543e-12
4.286198671e-12
3.896544248e-12
3.542312957e-12
3.220284499e-12
2.927531371e-12
2.661392151e-12
2.419447408e-12
2.199497648e-12
1.999543312e-12
1.817766647e-12
1.652515141e-12
1.502286487e-12
1.365714983e-12
1.241559083e-12
1.128690072e-12
1.026081886e-12
9.328017151e-13
8.480015576e-13
7.709105038e-13
7.008277328e-13
6.371161228e-13
5.791964742e-13
5.265422493e-13
4.786747711e-13
4.351588823e-13
3.955989844e-13
3.596354398e-13
3.269413146e-13
2.972193707e-13
2.701994274e-13
2.456358472e-13
2.233053116e-13
2.030048344e-13
1.845498443e-13
1.677725898e-13
1.525205336e-13
1.3865503e-13
1.260500258e-13
1.145909361e-13
1.041735783e-13
9.470325196e-14
8.609386542e-14
7.826714677e-14
7.115195729e-14
6.468359341e-14
5.880327034e-14
5.345751488e-14
4.859774545e-14
4.417976136e-14
4.01634251e-14
3.651220257e-14
3.319291349e-14
3.017537384e-14
4.714818553e-12
4.286198687e-12
3.896544257e-12
3.542312962e-12
3.220284515e-12
2.927531371e-12
2.661392162e-12
2.419447416e-12
2.19949765e-12
1.999543321e-12
1.817766652e-12
1.652515138e-12
1.502286495e-12
1.365714992e-12
1.241559079e-12
1.128690078e-12
1.026081886e-12
9.32801717e-13
8.480015614e-13
7.709105089e-13
7.008277326e-13
6.371161224e-13
5.791964768e-13
5.265422507e-13
4.786747734e-13
4.351588839e-13
3.955989849e-13
3.596354413e-13
3.269413098e-13
2.972193777e-13
2.701994287e-13
2.456358438e-13
2.233053163e-13
2.030048292e-13
1.845498499e-13
1.677725861e-13
1.525205366e-13
1.386550309e-13
1.260500276e-13
1.145909328e-13
1.041735786e-13
9.470325325e-14
8.609386565e-14
7.826715059e-14
7.11519518e-14
6.46835977e-14
5.880326689e-14
5.345751864e-14
4.859774093e-14
4.41797687e-14
4.016341953e-14
3.651220473e-14
3.319291152e-14
3.017537598e-14
2.743215811e-14
4.286198678e-12
3.896544255e-12
3.542312955e-12
3.220284506e-12
2.927531373e-12
2.661392151e-12
2.419447416e-12
2.199497648e-12
1.999543315e-12
1.817766653e-12
1.652515136e-12
1.502286486e-12
1.365714994e-12
1.241559082e-12
1.12869007e-12
1.026081888e-12
9.328017132e-13
8.480015596e-13
7.709105092e-13
7.008277343e-13
6.371161196e-13
5.79196474e-13
5.265422508e-13
4.786747726e-13
4.351588842e-13
3.955989848e-13
3.596354403e-13
3.269413098e-13
2.972193721e-13
2.701994339e-13
2.456358439e-13
2.233053122e-13
2.030048327e-13
1.845498445e-13
1.677725906e-13
1.525205326e-13
1.386550331e-13
1.260500279e-13
1.14590934e-13
1.041735751e-13
9.47032531e-14
8.609386645e-14
7.826715047e-14
7.115195497e-14
6.468359244e-14
5.880327055e-14
5.345751527e-14
4.859774414e-14
4.417976441e-14
4.016342603e-14
3.651219951e-14
3.319291334e-14
3.017537406e-14
2.743215994e-14
2.493832551e-14
3.896544251e-12
3.542312956e-12
3.220284503e-12
2.927531367e-12
2.661392155e-12
2.419447408e-12
2.19949765e-12
1.999543315e-12
1.817766649e-12
1.652515138e-12
1.502286486e-12
1.365714987e-12
1.241559084e-12
1.128690074e-12
1.026081881e-12
9.328017156e-13
8.480015569e-13
7.709105082e-13
7.008277352e-13
6.371161217e-13
5.791964719e-13
5.265422488e-13
4.786747732e-13
4.351588839e-13
3.955989854e-13
3.596354405e-13
3.269413091e-13
2.972193723e-13
2.70199429e-13
2.456358488e-13
2.233053125e-13
2.030048291e-13
1.845498478e-13
1.677725858e-13
1.525205368e-13
1.386550296e-13
1.2605003e-13
1.145909344e-13
1.041735763e-13
9.470325005e-14
8.60938664e-14
7.826715127e-14
7.115195493e-14
6.468359539e-14
5.880326582e-14
5.345751865e-14
4.859774112e-14
4.417976737e-14
4.016342217e-14
3.651220546e-14
3.319290863e-14
3.017537574e-14
2.743215822e-14
2.49383272e-14
2.2671205e-14
3.542312961e-12
3.220284511e-12
2.927531371e-12
2.661392156e-12
2.419447418e-12
2.199497648e-12
1.999543321e-12
1.817766653e-12
1.652515138e-12
1.502286491e-12
1.365714989e-12
1.241559081e-12
1.128690079e-12
1.026081887e-12
9.328017117e-13
8.48001561e-13
7.709105076e-13
7.008277359e-13
6.371161239e-13
5.791964752e-13
5.265422481e-13
4.786747724e-13
4.351588854e-13
3.95598986e-13
3.596354418e-13
3.269413101e-13
2.972193724e-13
2.701994298e-13
2.45635845e-13
2.233053175e-13
2.030048298e-13
1.84549845e-13
1.677725891e-13
1.525205328e-13
1.386550337e-13
1.260500271e-13
1.145909365e-13
1.041735769e-13
9.470325137e-14
8.609386383e-14
7.82671514e-14
7.115195582e-14
6.468359549e-14
5.880326863e-14
5.345751447e-14
4.85977443e-14
4.417976473e-14
4.016342495e-14
3.651220203e-14
3.319291411e-14
3.017537153e-14
2.743215981e-14
2.493832569e-14
2.267120658e-14
2.061018639e-14
3.220284503e-12
2.927531368e-12
2.66139215e-12
2.41944741e-12
2.199497648e-12
1.999543312e-12
1.817766652e-12
1.652515136e-12
1.502286486e-12
1.365714989e-12
1.241559079e-12
1.128690071e-12
1.026081887e-12
9.328017133e-13
8.480015544e-13
7.709105084e-13
7.008277327e-13
6.371161222e-13
5.791964751e-13
5.265422491e-13
4.7867477e-13
4.351588831e-13
3.955989859e-13
3.596354411e-13
3.269413101e-13
2.972193722e-13
2.701994289e-13
2.456358448e-13
2.233053131e-13
2.030048336e-13
1.845498449e-13
1.67772586e-13
1.525205353e-13
1.386550295e-13
1.260500303e-13
1.145909335e-13
1.041735784e-13
9.470325153e-14
8.609386471e-14
7.826714877e-14
7.115195567e-14
6.468359607e-14
5.880326851e-14
5.345751683e-14
4.859774033e-14
4.417976746e-14
4.01634224e-14
3.651220442e-14
3.319291087e-14
3.01753764e-14
2.743215588e-14
2.493832705e-14
2.267120513e-14
2.061018776e-14
1.873653305e-14
2.927531366e-12
2.661392152e-12
2.419447408e-12
2.199497645e-12
1.999543316e-12
1.817766647e-12
1.652515138e-12
1.502286486e-12
1.365714987e-12
1.241559081e-12
1.128690071e-12
1.026081883e-12
9.328017156e-13
8.480015573e-13
7.709105037e-13
7.008277347e-13
6.371161205e-13
5.791964746e-13
5.265422499e-13
4.786747718e-13
4.351588817e-13
3.955989845e-13
3.596354416e-13
3.2694131e-13
2.972193727e-13
2.701994292e-13
2.456358444e-13
2.233053134e-13
2.030048301e-13
1.845498487e-13
1.677725862e-13
1.525205327e-13
1.38655032e-13
1.260500268e-13
1.145909366e-13
1.041735759e-13
9.47032531e-14
8.6093865e-14
7.826714971e-14
7.115195341e-14
6.468359605e-14
5.880326913e-14
5.345751681e-14
4.859774256e-14
4.417976392e-14
4.016342495e-14
3.651220217e-14
3.31929131e-14
3.017537351e-14
2.743216036e-14
2.493832352e-14
2.26712064e-14
2.061018647e-14
1.873653432e-14
1.703321186e-14
2.661392162e-12
2.419447421e-12
2.199497654e-12
1.999543322e-12
1.817766659e-12
1.652515141e-12
1.502286495e-12
1.365714994e-12
1.241559084e-12
1.128690079e-12
1.026081887e-12
9.328017156e-13
8.480015634e-13
7.7091051e-13
7.008277337e-13
6.371161253e-13
5.791964757e-13
5.265422519e-13
4.786747748e-13
4.351588853e-13
3.955989851e-13
3.596354421e-13
3.26941312e-13
2.97219374e-13
2.701994309e-13
2.456358458e-13
2.233053141e-13
2.030048312e-13
1.845498463e-13
1.677725905e-13
1.525205336e-13
1.386550303e-13
1.260500297e-13
1.145909339e-13
1.041735792e-13
9.470325119e-14
8.609386683e-14
7.826715034e-14
7.115195459e-14
6.468359429e-14
5.880326939e-14
5.345751763e-14
4.859774277e-14
4.417976615e-14
4.016342192e-14
3.651220466e-14
3.319291121e-14
3.017537568e-14
2.743215786e-14
2.493832771e-14
2.26712033e-14
2.061018773e-14
1.873653324e-14
1.70332131e-14
1.548473812e-14
2.419447414e-12
2.19949765e-12
1.999543316e-12
1.817766652e-12
1.65251514e-12
1.502286487e-12
1.365714992e-12
1.241559082e-12
1.128690074e-12
1.026081887e-12
9.328017133e-13
8.480015573e-13
7.7091051e-13
7.008277345e-13
6.371161198e-13
5.791964759e-13
5.265422492e-13
4.786747732e-13
4.351588849e-13
3.955989856e-13
3.5963544e-13
3.269413101e-13
2.972193737e-13
2.701994302e-13
2.456358456e-13
2.233053137e-13
2.030048304e-13
1.845498461e-13
1.677725871e-13
1.525205364e-13
1.386550302e-13
1.260500272e-13
1.145909357e-13
1.04173576e-13
9.470325358e-14
8.609386448e-14
7.826715145e-14
7.115195466e-14
6.468359491e-14
5.880326738e-14
5.345751748e-14
4.859774316e-14
4.417976603e-14
4.016342367e-14
3.651220165e-14
3.319291324e-14
3.017537374e-14
2.743215963e-14
2.493832525e-14
2.267120694e-14
2.061018476e-14
1.873653425e-14
1.703321199e-14
1.548473914e-14
1.407703462e-14
2.19949764e-12
1.99954331e-12
1.817766644e-12
1.652515132e-12
1.502286485e-12
1.365714983e-12
1.241559079e-12
1.12869007e-12
1.026081881e-12
9.328017117e-13
8.480015544e-13
7.709105037e-13
7.008277337e-13
6.371161198e-13
5.791964704e-13
5.265422489e-13
4.786747702e-13
4.351588831e-13
3.955989848e-13
3.596354401e-13
3.269413079e-13
2.972193717e-13
2.701994297e-13
2.456358447e-13
2.233053134e-13
2.030048299e-13
1.845498451e-13
1.677725867e-13
1.525205332e-13
1.386550325e-13
1.26050027e-13
1.145909334e-13
1.041735776e-13
9.470325057e-14
8.609386656e-14
7.826714923e-14
7.11519556e-14
6.46835949e-14
5.880326788e-14
5.345751559e-14
4.859774298e-14
4.417976635e-14
4.016342351e-14
3.651220319e-14
3.319291046e-14
3.017537555e-14
2.743215785e-14
2.493832685e-14
2.267120469e-14
2.061018805e-14
1.873653153e-14
1.703321289e-14
1.548473811e-14
1.407703552e-14
1.279730415e-14
1.999543321e-12
1.817766656e-12
1.65251514e-12
1.502286492e-12
1.365714994e-12
1.241559083e-12
1.128690078e-12
1.026081888e-12
9.328017156e-13
8.48001561e-13
7.709105084e-13
7.008277347e-13
6.371161253e-13
5.791964759e-13
5.265422489e-13
4.786747745e-13
4.351588845e-13
3.955989869e-13
3.596354428e-13
3.269413111e-13
2.972193725e-13
2.701994304e-13
2.456358466e-13
2.233053147e-13
2.030048315e-13
1.845498464e-13
1.677725875e-13
1.525205343e-13
1.386550309e-13
1.260500303e-13
1.145909343e-13
1.041735764e-13
9.470325287e-14
8.609386466e-14
7.826715188e-14
7.115195426e-14
6.468359637e-14
5.880326844e-14
5.345751656e-14
4.859774173e-14
4.41797666e-14
4.016342418e-14
3.651220341e-14
3.319291219e-14
3.017537332e-14
2.743215976e-14
2.493832546e-14
2.267120635e-14
2.06101862e-14
1.87365347e-14
1.703321058e-14
1.548473908e-14
1.407703473e-14
1.27973051e-14
1.163391293e-14
1.81776665e-12
1.652515137e-12
1.502286487e-12
1.365714988e-12
1.241559082e-12
1.128690072e-12
1.026081886e-12
9.328017132e-13
8.480015569e-13
7.709105076e-13
7.008277327e-13
6.371161205e-13
5.791964757e-13
5.265422492e-13
4.786747702e-13
4.351588845e-13
3.955989846e-13
3.596354415e-13
3.269413106e-13
2.972193728e-13
2.701994287e-13
2.45635845e-13
2.233053143e-13
2.030048309e-13
1.845498462e-13
1.677725871e-13
1.525205336e-13
1.386550307e-13
1.260500277e-13
1.145909363e-13
1.041735763e-13
9.470325098e-14
8.609386597e-14
7.826714944e-14
7.115195602e-14
6.468359458e-14
5.880326924e-14
5.345751659e-14
4.859774217e-14
4.417976507e-14
4.016342406e-14
3.651220369e-14
3.319291208e-14
3.017537462e-14
2.743215748e-14
2.493832697e-14
2.267120489e-14
2.061018753e-14
1.873653285e-14
1.703321331e-14
1.548473684e-14
1.407703548e-14
1.279730426e-14
1.163391369e-14
1.057628445e-14
1.65251514e-12
1.502286492e-12
1.365714991e-12
1.241559083e-12
1.128690077e-12
1.026081886e-12
9.32801717e-13
8.480015596e-13
7.709105082e-13
7.008277359e-13
6.371161222e-13
5.791964746e-13
5.265422519e-13
4.786747732e-13
4.351588831e-13
3.955989869e-13
3.596354415e-13
3.269413113e-13
2.97219374e-13
2.701994305e-13
2.456358449e-13
2.233053142e-13
2.030048317e-13
1.845498467e-13
1.677725879e-13
1.525205341e-13
1.386550309e-13
1.260500282e-13
1.145909346e-13
1.041735787e-13
9.47032514e-14
8.609386474e-14
7.826715108e-14
7.115195421e-14
6.468359655e-14
5.880326794e-14
5.345751763e-14
4.859774248e-14
4.417976572e-14
4.016342289e-14
3.651220378e-14
3.319291253e-14
3.01753747e-14
2.743215881e-14
2.493832504e-14
2.267120639e-14
2.061018632e-14
1.873653416e-14
1.703321173e-14
1.548473941e-14
1.407703353e-14
1.279730502e-14
1.163391299e-14
1.05762852e-14
9.614804067e-15
1.502286492e-12
1.365714993e-12
1.241559084e-12
1.128690076e-12
1.026081889e-12
9.328017151e-13
8.480015614e-13
7.709105092e-13
7.008277352e-13
6.371161239e-13
5.791964751e-13
5.265422499e-13
4.786747748e-13
4.351588849e-13
3.955989848e-13
3.596354428e-13
3.269413106e-13
2.97219374e-13
2.701994311e-13
2.45635846e-13
2.233053137e-13
2.030048312e-13
1.845498471e-13
1.67772588e-13
1.525205346e-13
1.386550311e-13
1.260500281e-13
1.145909348e-13
1.04173577e-13
9.470325342e-14
8.609386495e-14
7.826714981e-14
7.115195557e-14
6.468359477e-14
5.880326962e-14
5.345751634e-14
4.859774333e-14
4.417976591e-14
4.016342341e-14
3.651220265e-14
3.319291254e-14
3.017537504e-14
2.743215883e-14
2.493832621e-14
2.26712046e-14
2.061018764e-14
1.873653302e-14
1.703321289e-14
1.548473794e-14
1.407703584e-14
1.279730321e-14
1.163391366e-14
1.057628455e-14
9.61480473e-15
8.740730975e-15
1.36571499e-12
1.241559083e-12
1.128690074e-12
1.026081886e-12
9.328017155e-13
8.480015576e-13
7.709105089e-13
7.008277343e-13
6.371161217e-13
5.791964752e-13
5.265422491e-13
4.786747718e-13
4.351588853e-13
3.955989856e-13
3.596354401e-13
3.269413111e-13
2.972193728e-13
2.701994305e-13
2.45635846e-13
2.233053141e-13
2.030048302e-13
1.845498462e-13
1.67772588e-13
1.525205343e-13
1.386550312e-13
1.260500281e-13
1.145909345e-13
1.041735769e-13
9.470325161e-14
8.609386659e-14
7.826714982e-14
7.115195424e-14
6.468359585e-14
5.880326787e-14
5.345751774e-14
4.859774204e-14
4.417976658e-14
4.016342348e-14
3.651220303e-14
3.319291144e-14
3.017537499e-14
2.743215908e-14
2.493832616e-14
2.26712056e-14
2.061018596e-14
1.873653419e-14
1.703321181e-14
1.548473896e-14
1.407703447e-14
1.279730528e-14
1.163391199e-14
1.057628512e-14
9.614804114e-15
8.740731556e-15
7.946119053e-15
1.241559077e-12
1.12869007e-12
1.026081881e-12
9.328017106e-13
8.480015561e-13
7.709105038e-13
7.008277326e-13
6.371161196e-13
5.791964719e-13
5.265422481e-13
4.7867477e-13
4.351588817e-13
3.955989851e-13
3.5963544e-13
3.269413079e-13
2.972193725e-13
2.701994287e-13
2.456358449e-13
2.233053137e-13
2.030048302e-13
1.845498449e-13
1.677725868e-13
1.525205339e-13
1.386550306e-13
1.260500278e-13
1.145909341e-13
1.041735764e-13
9.470325136e-14
8.609386475e-14
7.826715113e-14
7.115195409e-14
6.468359451e-14
5.880326872e-14
5.345751603e-14
4.85977432e-14
4.417976531e-14
4.0163424e-14
3.651220302e-14
3.319291171e-14
3.017537391e-14
2.743215897e-14
2.493832633e-14
2.267120551e-14
2.061018683e-14
1.873653262e-14
1.703321283e-14
1.548473795e-14
1.407703536e-14
1.279730401e-14
1.163391385e-14
1.057628359e-14
9.614804619e-15
8.740730978e-15
7.946119565e-15
7.223744565e-15
1.128690073e-12
1.026081885e-12
9.32801713e-13
8.480015576e-13
7.709105078e-13
7.008277328e-13
6.371161224e-13
5.79196474e-13
5.265422488e-13
4.786747724e-13
4.351588831e-13
3.955989845e-13
3.596354421e-13
3.269413101e-13
2.972193717e-13
2.701994304e-13
2.45635845e-13
2.233053142e-13
2.030048312e-13
1.845498462e-13
1.677725868e-13
1.525205339e-13
1.386550313e-13
1.260500282e-13
1.145909347e-13
1.041735768e-13
9.470325152e-14
8.609386513e-14
7.826715e-14
7.115195578e-14
6.468359482e-14
5.880326791e-14
5.345751718e-14
4.859774199e-14
4.417976668e-14
4.016342313e-14
3.651220374e-14
3.319291193e-14
3.017537437e-14
2.743215818e-14
2.493832641e-14
2.267120583e-14
2.061018689e-14
1.873653354e-14
1.703321152e-14
1.548473898e-14
1.407703454e-14
1.279730491e-14
1.163391277e-14
1.057628535e-14
9.614803289e-15
8.740731498e-15
7.946119094e-15
7.22374508e-15
6.567040533e-15
1.026081888e-12
9.328017169e-13
8.4800156e-13
7.709105094e-13
7.008277366e-13
6.371161228e-13
5.791964768e-13
5.265422508e-13
4.786747732e-13
4.351588854e-13
3.955989859e-13
3.596354416e-13
3.26941312e-13
2.972193737e-13
2.701994297e-13
2.456358466e-13
2.233053143e-13
2.030048317e-13
1.845498471e-13
1.67772588e-13
1.525205339e-13
1.386550313e-13
1.260500288e-13
1.145909351e-13
1.041735774e-13
9.470325194e-14
8.609386529e-14
7.826715037e-14
7.115195478e-14
6.468359638e-14
5.880326821e-14
5.345751645e-14
4.859774304e-14
4.417976559e-14
4.016342438e-14
3.651220296e-14
3.31929126e-14
3.017537458e-14
2.743215861e-14
2.49383257e-14
2.26712059e-14
2.061018718e-14
1.87365336e-14
1.703321236e-14
1.54847378e-14
1.407703548e-14
1.279730417e-14
1.163391359e-14
1.057628437e-14
9.614804892e-15
8.740730291e-15
7.946119569e-15
7.223744654e-15
6.567041003e-15
5.970036867e-15
9.328017149e-13
8.480015593e-13
7.709105077e-13
7.008277346e-13
6.371161231e-13
5.791964742e-13
5.265422507e-13
4.786747726e-13
4.351588839e-13
3.95598986e-13
3.596354411e-13
3.2694131e-13
2.97219374e-13
2.701994302e-13
2.456358447e-13
2.233053147e-13
2.030048309e-13
1.845498467e-13
1.67772588e-13
1.525205343e-13
1.386550306e-13
1.260500282e-13
1.145909351e-13
1.041735772e-13
9.470325197e-14
8.609386524e-14
7.826715013e-14
7.115195475e-14
6.468359514e-14
5.880326933e-14
5.345751646e-14
4.859774214e-14
4.417976633e-14
4.016342319e-14
3.651220392e-14
3.319291173e-14
3.017537504e-14
2.743215866e-14
2.493832596e-14
2.267120514e-14
2.061018714e-14
1.873653377e-14
1.703321233e-14
1.548473848e-14
1.407703433e-14
1.279730496e-14
1.163391286e-14
1.057628507e-14
9.614803956e-15
8.740731704e-15
7.946118432e-15
7.22374505e-15
6.567040583e-15
5.970037265e-15
5.427306233e-15
8.48001559e-13
7.709105085e-13
7.008277343e-13
6.371161223e-13
5.791964755e-13
5.265422493e-13
4.786747734e-13
4.351588842e-13
3.955989854e-13
3.596354418e-13
3.269413101e-13
2.972193727e-13
2.701994309e-13
2.456358456e-13
2.233053134e-13
2.030048315e-13
1.845498462e-13
1.677725879e-13
1.525205346e-13
1.386550312e-13
1.260500278e-13
1.145909347e-13
1.041735774e-13
9.470325197e-14
8.609386543e-14
7.826715022e-14
7.115195466e-14
6.468359523e-14
5.880326831e-14
5.345751757e-14
4.859774223e-14
4.417976558e-14
4.016342393e-14
3.65122029e-14
3.319291265e-14
3.01753743e-14
2.743215913e-14
2.493832606e-14
2.267120542e-14
2.061018649e-14
1.873653377e-14
1.703321252e-14
1.548473848e-14
1.407703498e-14
1.279730394e-14
1.16339136e-14
1.057628442e-14
9.614804606e-15
8.740730869e-15
7.946119731e-15
7.223744029e-15
6.567040954e-15
5.970036894e-15
5.427306605e-15
4.933914758e-15
7.709105065e-13
7.008277335e-13
6.371161207e-13
5.791964736e-13
5.265422494e-13
4.786747711e-13
4.351588839e-13
3.955989848e-13
3.596354405e-13
3.269413101e-13
2.972193722e-13
2.701994292e-13
2.456358458e-13
2.233053137e-13
2.030048299e-13
1.845498464e-13
1.677725871e-13
1.525205341e-13
1.386550311e-13
1.260500281e-13
1.145909341e-13
1.041735768e-13
9.470325194e-14
8.609386524e-14
7.826715022e-14
7.115195459e-14
6.468359501e-14
5.880326826e-14
5.345751653e-14
4.859774314e-14
4.417976557e-14
4.016342317e-14
3.65122035e-14
3.319291166e-14
3.017537508e-14
2.743215839e-14
2.493832643e-14
2.267120546e-14
2.06101867e-14
1.873653314e-14
1.703321248e-14
1.548473862e-14
1.407703495e-14
1.27973045e-14
1.163391265e-14
1.057628507e-14
9.614803994e-15
8.740731441e-15
7.946118955e-15
7.223745195e-15
6.567040012e-15
5.970037218e-15
5.427306255e-15
4.933915084e-15
4.485377043e-15
7.008277324e-13
6.371161206e-13
5.791964727e-13
5.265422481e-13
4.786747716e-13
4.351588823e-13
3.955989849e-13
3.596354403e-13
3.269413091e-13
2.972193724e-13
2.701994289e-13
2.456358444e-13
2.233053141e-13
2.030048304e-13
1.845498451e-13
1.677725875e-13
1.525205336e-13
1.386550309e-13
1.260500281e-13
1.145909345e-13
1.041735764e-13
9.470325152e-14
8.609386529e-14
7.826715013e-14
7.115195466e-14
6.468359501e-14
5.880326812e-14
5.345751654e-14
4.859774224e-14
4.417976644e-14
4.01634232e-14
3.651220284e-14
3.319291223e-14
3.01753742e-14
2.743215913e-14
2.493832578e-14
2.267120581e-14
2.061018676e-14
1.873653334e-14
1.703321192e-14
1.54847386e-14
1.407703509e-14
1.279730449e-14
1.163391317e-14
1.057628421e-14
9.614804597e-15
8.740730894e-15
7.946119482e-15
7.223744496e-15
6.567041078e-15
5.970036368e-15
5.427306556e-15
4.933914772e-15
4.485377344e-15
4.077615489e-15
6.371161212e-13
5.79196474e-13
5.265422486e-13
4.786747716e-13
4.351588838e-13
3.955989844e-13
3.596354413e-13
3.269413098e-13
2.972193723e-13
2.701994298e-13
2.456358448e-13
2.233053134e-13
2.030048312e-13
1.845498461e-13
1.677725867e-13
1.525205343e-13
1.386550307e-13
1.260500282e-13
1.145909348e-13
1.041735769e-13
9.470325136e-14
8.609386513e-14
7.826715037e-14
7.115195475e-14
6.468359523e-14
5.880326826e-14
5.345751654e-14
4.859774237e-14
4.417976573e-14
4.016342409e-14
3.651220296e-14
3.319291172e-14
3.017537479e-14
2.74321584e-14
2.493832651e-14
2.267120529e-14
2.061018713e-14
1.873653344e-14
1.703321215e-14
1.548473813e-14
1.407703511e-14
1.279730464e-14
1.163391319e-14
1.057628471e-14
9.614803842e-15
8.740731463e-15
7.946119005e-15
7.223744993e-15
6.567040459e-15
5.970037352e-15
5.427305796e-15
4.933915057e-15
4.485377071e-15
4.077615773e-15
3.706923176e-15
5.791964729e-13
5.265422483e-13
4.786747708e-13
4.351588827e-13
3.955989847e-13
3.596354398e-13
3.269413098e-13
2.972193721e-13
2.70199429e-13
2.45635845e-13
2.233053131e-13
2.030048301e-13
1.845498463e-13
1.677725871e-13
1.525205332e-13
1.386550309e-13
1.260500277e-13
1.145909346e-13
1.04173577e-13
9.470325161e-14
8.609386475e-14
7.826715e-14
7.115195478e-14
6.468359514e-14
5.880326831e-14
5.345751653e-14
4.859774224e-14
4.417976573e-14
4.016342333e-14
3.651220366e-14
3.319291173e-14
3.017537424e-14
2.743215886e-14
2.493832578e-14
2.267120589e-14
2.061018659e-14
1.873653373e-14
1.703321219e-14
1.54847383e-14
1.407703464e-14
1.279730463e-14
1.16339133e-14
1.05762847e-14
9.614804272e-15
8.740730753e-15
7.9461195e-15
7.223744539e-15
6.567040894e-15
5.970036773e-15
5.427306675e-15
4.933914353e-15
4.485377318e-15
4.077615513e-15
3.706923424e-15
3.369930155e-15
5.265422573e-13
4.786747795e-13
4.351588901e-13
3.955989911e-13
3.596354469e-13
3.269413146e-13
2.972193777e-13
2.701994339e-13
2.456358488e-13
2.233053175e-13
2.030048336e-13
1.845498487e-13
1.677725905e-13
1.525205364e-13
1.386550325e-13
1.260500303e-13
1.145909363e-13
1.041735787e-13
9.470325342e-14
8.609386659e-14
7.826715113e-14
7.115195578e-14
6.468359638e-14
5.880326933e-14
5.345751757e-14
4.859774314e-14
4.417976644e-14
4.016342409e-14
3.651220366e-14
3.3192913e-14
3.017537482e-14
2.743215888e-14
2.493832667e-14
2.267120565e-14
2.061018753e-14
1.873653359e-14
1.703321278e-14
1.548473863e-14
1.407703506e-14
1.279730444e-14
1.16339135e-14
1.0576285e-14
9.614804439e-15
8.740731308e-15
7.946119004e-15
7.223745126e-15
6.567040604e-15
5.97003728e-15
5.427306251e-15
4.933915245e-15
4.485376762e-15
4.077615815e-15
3.706923258e-15
3.369930444e-15
3.063572922e-15
4.786747694e-13
4.351588814e-13
3.955989827e-13
3.59635439e-13
3.269413085e-13
2.972193707e-13
2.701994287e-13
2.456358439e-13
2.233053125e-13
2.030048298e-13
1.845498449e-13
1.677725862e-13
1.525205336e-13
1.386550302e-13
1.26050027e-13
1.145909343e-13
1.041735763e-13
9.47032514e-14
8.609386495e-14
7.826714982e-14
7.115195409e-14
6.468359482e-14
5.880326821e-14
5.345751646e-14
4.859774223e-14
4.417976557e-14
4.01634232e-14
3.651220296e-14
3.319291173e-14
3.017537482e-14
2.743215836e-14
2.493832573e-14
2.267120559e-14
2.061018652e-14
1.873653373e-14
1.7033212e-14
1.548473856e-14
1.407703482e-14
1.279730433e-14
1.163391289e-14
1.057628478e-14
9.614804343e-15
8.740731126e-15
7.946119206e-15
7.223744399e-15
6.567040886e-15
5.970036789e-15
5.427306505e-15
4.933914671e-15
4.485377402e-15
4.077615154e-15
3.706923391e-15
3.369930165e-15
3.063573067e-15
2.785066234e-15
4.351588804e-13
3.955989824e-13
3.596354382e-13
3.269413075e-13
2.972193708e-13
2.701994274e-13
2.456358438e-13
2.233053122e-13
2.030048291e-13
1.84549845e-13
1.67772586e-13
1.525205327e-13
1.386550303e-13
1.260500272e-13
1.145909334e-13
1.041735764e-13
9.470325098e-14
8.609386474e-14
7.826714981e-14
7.115195424e-14
6.468359451e-14
5.880326791e-14
5.345751645e-14
4.859774214e-14
4.417976558e-14
4.016342317e-14
3.651220284e-14
3.319291172e-14
3.017537424e-14
2.743215888e-14
2.493832573e-14
2.267120517e-14
2.061018686e-14
1.873653317e-14
1.703321245e-14
1.548473815e-14
1.407703503e-14
1.279730436e-14
1.163391301e-14
1.057628442e-14
9.614804325e-15
8.740731205e-15
7.94611919e-15
7.223744718e-15
6.56704035e-15
5.970037158e-15
5.427306161e-15
4.933914995e-15
4.485376965e-15
4.077615812e-15
3.70692286e-15
3.369930349e-15
3.063572871e-15
2.78506642e-15
2.53187839e-15
3.955989888e-13
3.596354445e-13
3.269413129e-13
2.972193755e-13
2.701994326e-13
2.456358472e-13
2.233053163e-13
2.030048327e-13
1.845498478e-13
1.677725891e-13
1.525205353e-13
1.38655032e-13
1.260500297e-13
1.145909357e-13
1.041735776e-13
9.470325287e-14
8.609386597e-14
7.826715108e-14
7.115195557e-14
6.468359585e-14
5.880326872e-14
5.345751718e-14
4.859774304e-14
4.417976633e-14
4.016342393e-14
3.65122035e-14
3.319291223e-14
3.017537479e-14
2.743215886e-14
2.493832667e-14
2.267120559e-14
2.061018686e-14
1.873653383e-14
1.703321226e-14
1.548473885e-14
1.407703492e-14
1.279730479e-14
1.163391325e-14
1.057628473e-14
9.614804184e-15
8.740731351e-15
7.94611941e-15
7.22374484e-15
6.567040764e-15
5.970036782e-15
5.427306599e-15
4.933914775e-15
4.485377343e-15
4.077615491e-15
3.706923528e-15
3.369929929e-15
3.063573096e-15
2.785066293e-15
2.531878606e-15
2.301707666e-15
3.596354378e-13
3.269413072e-13
2.972193699e-13
2.701994273e-13
2.456358433e-13
2.233053116e-13
2.030048292e-13
1.845498445e-13
1.677725858e-13
1.525205328e-13
1.386550295e-13
1.260500268e-13
1.145909339e-13
1.04173576e-13
9.470325057e-14
8.609386466e-14
7.826714944e-14
7.115195421e-14
6.468359477e-14
5.880326787e-14
5.345751603e-14
4.859774199e-14
4.417976559e-14
4.016342319e-14
3.65122029e-14
3.319291166e-14
3.01753742e-14
2.74321584e-14
2.493832578e-14