/*--------------------------------*- C++ -*----------------------------------*\
| =========                 |                                                 |
| \\      /  F ield         | OpenFOAM: The Open Source CFD Toolbox           |
|  \\    /   O peration     | Version:  2.3.0                                 |
|   \\  /    A nd           | Web:      www.OpenFOAM.org                      |
|    \\/     M anipulation  |                                                 |
\*---------------------------------------------------------------------------*/
FoamFile
{
    version     2.0;
    format      ascii;
    class       dictionary;
    object      blockMeshDict;
}
// * * * * * * * * * * * * * * * * * * * * * * * * * * * * * * * * * * * * * //

convertToMeters 1;

vertices
(
        (0   1.0    -.1  )//0
        (9.9645   1.0    -.1  )//1
        (9.9645   2.0    -.1  )//2
        (0   2.0    -.1  )//3
        (0   1.0     .1  )//4
        (9.9645   1.0     .1  )//5
        (9.9645   2.0     .1  )//6
        (0   2.0     .1  )//7
        (9.9645   3.036  -.1  )//8
        (0   3.036  -.1  )//9
        (0   3.036   .1  )//10
        (9.9645   3.036   .1  )//11
);

blocks
(
        //hex (0 1 3 2 6 7 9 8) (40 25 30) simpleGrading (1 10.7028 1)
        hex (0 1 2 3 4 5 6 7)   (120 65 1) simpleGrading (1 10 1)
        hex (3 2 8 9 7 6 11 10) (120 65 1) simpleGrading (1 .1 1)
);

/*
edges
(
      spline 0 1 ((0.25 -0.1 0.1))
      spline 3 2 ((0.75  0.1 0.1))
);
*/

//EDGES-START
edges
(
spline 0 1 (
(0 1 -0.1)
(0.0125 1 -0.1)
(0.025 1 -0.1)
(0.0375 1 -0.1)
(0.05 1 -0.1)
(0.0625 1 -0.1)
(0.075 1 -0.1)
(0.0875 1 -0.1)
(0.1 1 -0.1)
(0.1125 1 -0.1)
(0.125 1 -0.1)
(0.1375 1 -0.1)
(0.15 0.999853500361723 -0.1)
(0.1625 0.999546574964562 -0.1)
(0.175 0.999147670842287 -0.1)
(0.1875 0.998646794216239 -0.1)
(0.2 0.998033951307763 -0.1)
(0.2125 0.997299148338199 -0.1)
(0.225 0.996432391528892 -0.1)
(0.2375 0.995423687101183 -0.1)
(0.25 0.994263041276416 -0.1)
(0.2625 0.992940460275932 -0.1)
(0.275 0.991445950321075 -0.1)
(0.2875 0.989769517633187 -0.1)
(0.3 0.987901168433611 -0.1)
(0.3125 0.985830908943689 -0.1)
(0.325 0.983548745384765 -0.1)
(0.3375 0.98104468397818 -0.1)
(0.35 0.978308730945277 -0.1)
(0.3625 0.9753308925074 -0.1)
(0.375 0.97210117488589 -0.1)
(0.3875 0.968609584302091 -0.1)
(0.4 0.964846126977344 -0.1)
(0.4125 0.960802791061489 -0.1)
(0.425 0.956483795770945 -0.1)
(0.4375 0.951898021524438 -0.1)
(0.45 0.947054357916131 -0.1)
(0.4625 0.941961694540189 -0.1)
(0.475 0.936628920990776 -0.1)
(0.4875 0.931064926862056 -0.1)
(0.5 0.925278601748195 -0.1)
(0.5125 0.919278835243357 -0.1)
(0.525 0.913074516941706 -0.1)
(0.5375 0.906674536437407 -0.1)
(0.55 0.900087783324624 -0.1)
(0.5625 0.893323147197522 -0.1)
(0.575 0.886389517650265 -0.1)
(0.5875 0.879295784277018 -0.1)
(0.6 0.872050836671945 -0.1)
(0.6125 0.864663564429211 -0.1)
(0.625 0.857142857142802 -0.1)
(0.6375 0.849497397992501 -0.1)
(0.65 0.841735044498589 -0.1)
(0.6625 0.833863447766786 -0.1)
(0.675 0.825890258902813 -0.1)
(0.6875 0.81782312901239 -0.1)
(0.7 0.809669709201238 -0.1)
(0.7125 0.801437650575077 -0.1)
(0.725 0.793134604239629 -0.1)
(0.7375 0.784768221300614 -0.1)
(0.75 0.776346152863751 -0.1)
(0.7625 0.767876050034763 -0.1)
(0.775 0.75936556391937 -0.1)
(0.7875 0.750822345623292 -0.1)
(0.8 0.742254046252249 -0.1)
(0.8125 0.733668316911963 -0.1)
(0.825 0.725072808708154 -0.1)
(0.8375 0.716475172746543 -0.1)
(0.85 0.70788306013285 -0.1)
(0.8625 0.699304121972797 -0.1)
(0.875 0.690746009372103 -0.1)
(0.8875 0.682216373436488 -0.1)
(0.9 0.673722597050246 -0.1)
(0.9125 0.665267557822977 -0.1)
(0.925 0.656850395032062 -0.1)
(0.9375 0.648470134799476 -0.1)
(0.95 0.640125803247193 -0.1)
(0.9625 0.631816426497189 -0.1)
(0.975 0.623541030671437 -0.1)
(0.9875 0.615298641891911 -0.1)
(1 0.607088286280585 -0.1)
(1.0125 0.598908989959435 -0.1)
(1.025 0.590759779050434 -0.1)
(1.0375 0.582639679675556 -0.1)
(1.05 0.574547717956777 -0.1)
(1.0625 0.56648292001607 -0.1)
(1.075 0.558444311975409 -0.1)
(1.0875 0.550430919956769 -0.1)
(1.1 0.542441770082123 -0.1)
(1.1125 0.534475888473448 -0.1)
(1.125 0.526532301252716 -0.1)
(1.1375 0.518610034541902 -0.1)
(1.15 0.51070811446298 -0.1)
(1.1625 0.502825567137925 -0.1)
(1.175 0.494961418688711 -0.1)
(1.1875 0.487114695237311 -0.1)
(1.2 0.479284422905702 -0.1)
(1.2125 0.471469627815856 -0.1)
(1.225 0.463669336089748 -0.1)
(1.2375 0.455882573849353 -0.1)
(1.25 0.448108367216644 -0.1)
(1.2625 0.440345742313596 -0.1)
(1.275 0.432593725262183 -0.1)
(1.2875 0.42485134218438 -0.1)
(1.3 0.417117619202161 -0.1)
(1.3125 0.4093915824375 -0.1)
(1.325 0.401672258012371 -0.1)
(1.3375 0.393958672048749 -0.1)
(1.35 0.386250262824374 -0.1)
(1.3625 0.378549012147046 -0.1)
(1.375 0.370857871154237 -0.1)
(1.3875 0.363179792890967 -0.1)
(1.4 0.355517730402261 -0.1)
(1.4125 0.34787463673314 -0.1)
(1.425 0.340253464928624 -0.1)
(1.4375 0.332657168033739 -0.1)
(1.45 0.325088699093504 -0.1)
(1.4625 0.317551011152942 -0.1)
(1.475 0.310047057257075 -0.1)
(1.4875 0.302579790450927 -0.1)
(1.5 0.295152163779517 -0.1)
(1.5125 0.287767130287869 -0.1)
(1.525 0.280427643021005 -0.1)
(1.5375 0.273136655023946 -0.1)
(1.55 0.265897119341715 -0.1)
(1.5625 0.258711989019335 -0.1)
(1.575 0.251584217101826 -0.1)
(1.5875 0.244516756634211 -0.1)
(1.6 0.237512560661514 -0.1)
(1.6125 0.230574582228754 -0.1)
(1.625 0.223705774380955 -0.1)
(1.6375 0.216909090163139 -0.1)
(1.65 0.210187482620327 -0.1)
(1.6625 0.203543904797542 -0.1)
(1.675 0.196981309739806 -0.1)
(1.6875 0.190502650492141 -0.1)
(1.7 0.18411088009957 -0.1)
(1.7125 0.177808951607114 -0.1)
(1.725 0.171599818059795 -0.1)
(1.7375 0.165486432502635 -0.1)
(1.75 0.159471747980657 -0.1)
(1.7625 0.153558717538884 -0.1)
(1.775 0.147750294222336 -0.1)
(1.7875 0.142049429701804 -0.1)
(1.8 0.136458377775419 -0.1)
(1.8125 0.130977561007447 -0.1)
(1.825 0.125607105228765 -0.1)
(1.8375 0.120347136270252 -0.1)
(1.85 0.115197779962784 -0.1)
(1.8625 0.110159162137241 -0.1)
(1.875 0.105231408624498 -0.1)
(1.8875 0.100414645255435 -0.1)
(1.9 0.0957089978609283 -0.1)
(1.9125 0.0911145922718564 -0.1)
(1.925 0.0866315543190961 -0.1)
(1.9375 0.0822600098335264 -0.1)
(1.95 0.0780000846460236 -0.1)
(1.9625 0.0738519045874666 -0.1)
(1.975 0.0698155954887323 -0.1)
(1.9875 0.065891283180699 -0.1)
(2 0.0620790934942436 -0.1)
(2.0125 0.0583791522602445 -0.1)
(2.025 0.0547915853095795 -0.1)
(2.0375 0.0513165184731258 -0.1)
(2.05 0.0479540775817618 -0.1)
(2.0625 0.044704388466364 -0.1)
(2.075 0.0415675769578117 -0.1)
(2.0875 0.0385437688869814 -0.1)
(2.1 0.0356330900847515 -0.1)
(2.1125 0.0328356663819988 -0.1)
(2.125 0.0301516236096024 -0.1)
(2.1375 0.0275810875984384 -0.1)
(2.15 0.0251241841793858 -0.1)
(2.1625 0.0227810391833216 -0.1)
(2.175 0.020551778441124 -0.1)
(2.1875 0.0184365277836701 -0.1)
(2.2 0.0164354130418385 -0.1)
(2.2125 0.0145485600465056 -0.1)
(2.225 0.0127760946285508 -0.1)
(2.2375 0.0111181426188502 -0.1)
(2.25 0.00957482984828257 -0.1)
(2.2625 0.00814628214772479 -0.1)
(2.275 0.00683262534805575 -0.1)
(2.2875 0.00563398528015166 -0.1)
(2.3 0.00455048777489175 -0.1)
(2.3125 0.00358225866315216 -0.1)
(2.325 0.00272942377581192 -0.1)
(2.3375 0.00199210894374819 -0.1)
(2.35 0.00137043999783872 -0.1)
(2.3625 0.000864542768961212 -0.1)
(2.375 0.00047454308799336 -0.1)
(2.3875 0.000200566785812896 -0.1)
(2.4 4.2739693297695e-05 -0.1)
(2.41214285714286 0 -0.1)
(2.42214285714286 0 -0.1)
(2.43214285714286 0 -0.1)
(2.44214285714286 0 -0.1)
(2.45214285714286 0 -0.1)
(2.46214285714286 0 -0.1)
(2.47214285714286 0 -0.1)
(2.48214285714286 0 -0.1)
(2.49214285714286 0 -0.1)
(2.50214285714286 0 -0.1)
(2.51214285714286 0 -0.1)
(2.52214285714286 0 -0.1)
(2.53214285714286 0 -0.1)
(2.54214285714286 0 -0.1)
(2.55214285714286 0 -0.1)
(2.56214285714286 0 -0.1)
(2.57214285714286 0 -0.1)
(2.58214285714286 0 -0.1)
(2.59214285714286 0 -0.1)
(2.60214285714286 0 -0.1)
(2.61214285714286 0 -0.1)
(2.62214285714286 0 -0.1)
(2.63214285714286 0 -0.1)
(2.64214285714286 0 -0.1)
(2.65214285714286 0 -0.1)
(2.66214285714286 0 -0.1)
(2.67214285714286 0 -0.1)
(2.68214285714286 0 -0.1)
(2.69214285714286 0 -0.1)
(2.70214285714286 0 -0.1)
(2.71214285714286 0 -0.1)
(2.72214285714286 0 -0.1)
(2.73214285714286 0 -0.1)
(2.74214285714286 0 -0.1)
(2.75214285714286 0 -0.1)
(2.76214285714286 0 -0.1)
(2.77214285714286 0 -0.1)
(2.78214285714286 0 -0.1)
(2.79214285714286 0 -0.1)
(2.80214285714286 0 -0.1)
(2.81214285714286 0 -0.1)
(2.82214285714286 0 -0.1)
(2.83214285714286 0 -0.1)
(2.84214285714286 0 -0.1)
(2.85214285714286 0 -0.1)
(2.86214285714286 0 -0.1)
(2.87214285714286 0 -0.1)
(2.88214285714286 0 -0.1)
(2.89214285714286 0 -0.1)
(2.90214285714286 0 -0.1)
(2.91214285714286 0 -0.1)
(2.92214285714286 0 -0.1)
(2.93214285714286 0 -0.1)
(2.94214285714286 0 -0.1)
(2.95214285714286 0 -0.1)
(2.96214285714286 0 -0.1)
(2.97214285714286 0 -0.1)
(2.98214285714286 0 -0.1)
(2.99214285714286 0 -0.1)
(3.00214285714286 0 -0.1)
(3.01214285714286 0 -0.1)
(3.02214285714286 0 -0.1)
(3.03214285714286 0 -0.1)
(3.04214285714286 0 -0.1)
(3.05214285714286 0 -0.1)
(3.06214285714286 0 -0.1)
(3.07214285714286 0 -0.1)
(3.08214285714286 0 -0.1)
(3.09214285714286 0 -0.1)
(3.10214285714286 0 -0.1)
(3.11214285714286 0 -0.1)
(3.12214285714286 0 -0.1)
(3.13214285714286 0 -0.1)
(3.14214285714286 0 -0.1)
(3.15214285714286 0 -0.1)
(3.16214285714286 0 -0.1)
(3.17214285714286 0 -0.1)
(3.18214285714286 0 -0.1)
(3.19214285714286 0 -0.1)
(3.20214285714286 0 -0.1)
(3.21214285714286 0 -0.1)
(3.22214285714286 0 -0.1)
(3.23214285714286 0 -0.1)
(3.24214285714286 0 -0.1)
(3.25214285714286 0 -0.1)
(3.26214285714286 0 -0.1)
(3.27214285714286 0 -0.1)
(3.28214285714286 0 -0.1)
(3.29214285714286 0 -0.1)
(3.30214285714286 0 -0.1)
(3.31214285714286 0 -0.1)
(3.32214285714286 0 -0.1)
(3.33214285714286 0 -0.1)
(3.34214285714286 0 -0.1)
(3.35214285714286 0 -0.1)
(3.36214285714286 0 -0.1)
(3.37214285714286 0 -0.1)
(3.38214285714286 0 -0.1)
(3.39214285714286 0 -0.1)
(3.40214285714286 0 -0.1)
(3.41214285714286 0 -0.1)
(3.42214285714286 0 -0.1)
(3.43214285714286 0 -0.1)
(3.44214285714286 0 -0.1)
(3.45214285714286 0 -0.1)
(3.46214285714286 0 -0.1)
(3.47214285714286 0 -0.1)
(3.48214285714286 0 -0.1)
(3.49214285714286 0 -0.1)
(3.50214285714286 0 -0.1)
(3.51214285714286 0 -0.1)
(3.52214285714286 0 -0.1)
(3.53214285714286 0 -0.1)
(3.54214285714286 0 -0.1)
(3.55214285714286 0 -0.1)
(3.56214285714286 0 -0.1)
(3.57214285714286 0 -0.1)
(3.58214285714286 0 -0.1)
(3.59214285714286 0 -0.1)
(3.60214285714286 0 -0.1)
(3.61214285714286 0 -0.1)
(3.62214285714286 0 -0.1)
(3.63214285714286 0 -0.1)
(3.64214285714286 0 -0.1)
(3.65214285714286 0 -0.1)
(3.66214285714286 0 -0.1)
(3.67214285714286 0 -0.1)
(3.68214285714286 0 -0.1)
(3.69214285714286 0 -0.1)
(3.70214285714286 0 -0.1)
(3.71214285714286 0 -0.1)
(3.72214285714286 0 -0.1)
(3.73214285714286 0 -0.1)
(3.74214285714286 0 -0.1)
(3.75214285714286 0 -0.1)
(3.76214285714286 0 -0.1)
(3.77214285714286 0 -0.1)
(3.78214285714286 0 -0.1)
(3.79214285714286 0 -0.1)
(3.80214285714286 0 -0.1)
(3.81214285714286 0 -0.1)
(3.82214285714286 0 -0.1)
(3.83214285714286 0 -0.1)
(3.84214285714286 0 -0.1)
(3.85214285714286 0 -0.1)
(3.86214285714286 0 -0.1)
(3.87214285714286 0 -0.1)
(3.88214285714286 0 -0.1)
(3.89214285714286 0 -0.1)
(3.90214285714286 0 -0.1)
(3.91214285714286 0 -0.1)
(3.92214285714286 0 -0.1)
(3.93214285714286 0 -0.1)
(3.94214285714286 0 -0.1)
(3.95214285714286 0 -0.1)
(3.96214285714286 0 -0.1)
(3.97214285714286 0 -0.1)
(3.98214285714286 0 -0.1)
(3.99214285714286 0 -0.1)
(4.00214285714286 0 -0.1)
(4.01214285714286 0 -0.1)
(4.02214285714286 0 -0.1)
(4.03214285714286 0 -0.1)
(4.04214285714286 0 -0.1)
(4.05214285714286 0 -0.1)
(4.06214285714286 0 -0.1)
(4.07214285714286 0 -0.1)
(4.08214285714286 0 -0.1)
(4.09214285714286 0 -0.1)
(4.10214285714286 0 -0.1)
(4.11214285714286 0 -0.1)
(4.12214285714286 0 -0.1)
(4.13214285714286 0 -0.1)
(4.14214285714286 0 -0.1)
(4.15214285714286 0 -0.1)
(4.16214285714286 0 -0.1)
(4.17214285714286 0 -0.1)
(4.18214285714286 0 -0.1)
(4.19214285714286 0 -0.1)
(4.20214285714286 0 -0.1)
(4.21214285714286 0 -0.1)
(4.22214285714286 0 -0.1)
(4.23214285714286 0 -0.1)
(4.24214285714286 0 -0.1)
(4.25214285714286 0 -0.1)
(4.26214285714286 0 -0.1)
(4.27214285714286 0 -0.1)
(4.28214285714286 0 -0.1)
(4.29214285714286 0 -0.1)
(4.30214285714286 0 -0.1)
(4.31214285714286 0 -0.1)
(4.32214285714286 0 -0.1)
(4.33214285714286 0 -0.1)
(4.34214285714286 0 -0.1)
(4.35214285714286 0 -0.1)
(4.36214285714286 0 -0.1)
(4.37214285714286 0 -0.1)
(4.38214285714286 0 -0.1)
(4.39214285714286 0 -0.1)
(4.40214285714286 0 -0.1)
(4.41214285714286 0 -0.1)
(4.42214285714286 0 -0.1)
(4.43214285714286 0 -0.1)
(4.44214285714286 0 -0.1)
(4.45214285714286 0 -0.1)
(4.46214285714286 0 -0.1)
(4.47214285714286 0 -0.1)
(4.48214285714286 0 -0.1)
(4.49214285714286 0 -0.1)
(4.50214285714286 0 -0.1)
(4.51214285714286 0 -0.1)
(4.52214285714286 0 -0.1)
(4.53214285714286 0 -0.1)
(4.54214285714286 0 -0.1)
(4.55214285714286 0 -0.1)
(4.56214285714286 0 -0.1)
(4.57214285714286 0 -0.1)
(4.58214285714286 0 -0.1)
(4.59214285714286 0 -0.1)
(4.60214285714286 0 -0.1)
(4.61214285714286 0 -0.1)
(4.62214285714286 0 -0.1)
(4.63214285714286 0 -0.1)
(4.64214285714286 0 -0.1)
(4.65214285714286 0 -0.1)
(4.66214285714286 0 -0.1)
(4.67214285714286 0 -0.1)
(4.68214285714286 0 -0.1)
(4.69214285714286 0 -0.1)
(4.70214285714286 0 -0.1)
(4.71214285714286 0 -0.1)
(4.72214285714286 0 -0.1)
(4.73214285714286 0 -0.1)
(4.74214285714286 0 -0.1)
(4.75214285714286 0 -0.1)
(4.76214285714286 0 -0.1)
(4.77214285714286 0 -0.1)
(4.78214285714286 0 -0.1)
(4.79214285714286 0 -0.1)
(4.80214285714286 0 -0.1)
(4.81214285714286 0 -0.1)
(4.82214285714286 0 -0.1)
(4.83214285714286 0 -0.1)
(4.84214285714286 0 -0.1)
(4.85214285714286 0 -0.1)
(4.86214285714286 0 -0.1)
(4.87214285714286 0 -0.1)
(4.88214285714286 0 -0.1)
(4.89214285714286 0 -0.1)
(4.90214285714286 0 -0.1)
(4.91214285714286 0 -0.1)
(4.92214285714286 0 -0.1)
(4.93214285714286 0 -0.1)
(4.94214285714286 0 -0.1)
(4.95214285714286 0 -0.1)
(4.96214285714286 0 -0.1)
(4.97214285714286 0 -0.1)
(4.98214285714286 0 -0.1)
(4.99214285714286 0 -0.1)
(5.00214285714286 0 -0.1)
(5.01214285714286 0 -0.1)
(5.02214285714286 0 -0.1)
(5.03214285714286 0 -0.1)
(5.04214285714286 0 -0.1)
(5.05214285714286 0 -0.1)
(5.06214285714286 0 -0.1)
(5.07214285714286 0 -0.1)
(5.08214285714286 0 -0.1)
(5.09214285714286 0 -0.1)
(5.10214285714286 0 -0.1)
(5.11214285714286 0 -0.1)
(5.12214285714286 0 -0.1)
(5.13214285714286 0 -0.1)
(5.14214285714286 0 -0.1)
(5.15214285714286 0 -0.1)
(5.16214285714286 0 -0.1)
(5.17214285714286 0 -0.1)
(5.18214285714286 0 -0.1)
(5.19214285714286 0 -0.1)
(5.20214285714286 0 -0.1)
(5.21214285714286 0 -0.1)
(5.22214285714286 0 -0.1)
(5.23214285714286 0 -0.1)
(5.24214285714286 0 -0.1)
(5.25214285714286 0 -0.1)
(5.26214285714286 0 -0.1)
(5.27214285714286 0 -0.1)
(5.28214285714286 0 -0.1)
(5.29214285714286 0 -0.1)
(5.30214285714286 0 -0.1)
(5.31214285714286 0 -0.1)
(5.32214285714286 0 -0.1)
(5.33214285714286 0 -0.1)
(5.34214285714286 0 -0.1)
(5.35214285714286 0 -0.1)
(5.36214285714286 0 -0.1)
(5.37214285714286 0 -0.1)
(5.38214285714286 0 -0.1)
(5.39214285714286 0 -0.1)
(5.40214285714286 0 -0.1)
(5.41214285714286 0 -0.1)
(5.42214285714286 0 -0.1)
(5.43214285714286 0 -0.1)
(5.44214285714286 0 -0.1)
(5.45214285714286 0 -0.1)
(5.46214285714286 0 -0.1)
(5.47214285714286 0 -0.1)
(5.48214285714286 0 -0.1)
(5.49214285714286 0 -0.1)
(5.50214285714286 0 -0.1)
(5.51214285714286 0 -0.1)
(5.52214285714286 0 -0.1)
(5.53214285714286 0 -0.1)
(5.54214285714286 0 -0.1)
(5.55214285714286 0 -0.1)
(5.56214285714286 0 -0.1)
(5.57214285714286 0 -0.1)
(5.58214285714286 0 -0.1)
(5.59214285714286 0 -0.1)
(5.60214285714286 0 -0.1)
(5.61214285714286 0 -0.1)
(5.62214285714286 0 -0.1)
(5.63214285714286 0 -0.1)
(5.64214285714286 0 -0.1)
(5.65214285714286 0 -0.1)
(5.66214285714286 0 -0.1)
(5.67214285714286 0 -0.1)
(5.68214285714286 0 -0.1)
(5.69214285714286 0 -0.1)
(5.70214285714286 0 -0.1)
(5.71214285714286 0 -0.1)
(5.72214285714286 0 -0.1)
(5.73214285714286 0 -0.1)
(5.74214285714286 0 -0.1)
(5.75214285714286 0 -0.1)
(5.76214285714286 0 -0.1)
(5.77214285714286 0 -0.1)
(5.78214285714286 0 -0.1)
(5.79214285714286 0 -0.1)
(5.80214285714286 0 -0.1)
(5.81214285714286 0 -0.1)
(5.82214285714286 0 -0.1)
(5.83214285714286 0 -0.1)
(5.84214285714286 0 -0.1)
(5.85214285714286 0 -0.1)
(5.86214285714286 0 -0.1)
(5.87214285714286 0 -0.1)
(5.88214285714286 0 -0.1)
(5.89214285714286 0 -0.1)
(5.90214285714286 0 -0.1)
(5.91214285714286 0 -0.1)
(5.92214285714286 0 -0.1)
(5.93214285714286 0 -0.1)
(5.94214285714286 0 -0.1)
(5.95214285714286 0 -0.1)
(5.96214285714286 0 -0.1)
(5.97214285714286 0 -0.1)
(5.98214285714286 0 -0.1)
(5.99214285714286 0 -0.1)
(6.00214285714286 0 -0.1)
(6.01214285714286 0 -0.1)
(6.02214285714286 0 -0.1)
(6.03214285714286 0 -0.1)
(6.04214285714286 0 -0.1)
(6.05214285714286 0 -0.1)
(6.06214285714286 0 -0.1)
(6.07214285714286 0 -0.1)
(6.08214285714286 0 -0.1)
(6.09214285714286 0 -0.1)
(6.10214285714286 0 -0.1)
(6.11214285714286 0 -0.1)
(6.12214285714286 0 -0.1)
(6.13214285714286 0 -0.1)
(6.14214285714286 0 -0.1)
(6.15214285714286 0 -0.1)
(6.16214285714286 0 -0.1)
(6.17214285714286 0 -0.1)
(6.18214285714286 0 -0.1)
(6.19214285714286 0 -0.1)
(6.20214285714286 0 -0.1)
(6.21214285714286 0 -0.1)
(6.22214285714286 0 -0.1)
(6.23214285714286 0 -0.1)
(6.24214285714286 0 -0.1)
(6.25214285714286 0 -0.1)
(6.26214285714286 0 -0.1)
(6.27214285714286 0 -0.1)
(6.28214285714286 0 -0.1)
(6.29214285714286 0 -0.1)
(6.30214285714286 0 -0.1)
(6.31214285714286 0 -0.1)
(6.32214285714286 0 -0.1)
(6.33214285714286 0 -0.1)
(6.34214285714286 0 -0.1)
(6.35214285714286 0 -0.1)
(6.36214285714286 0 -0.1)
(6.37214285714286 0 -0.1)
(6.38214285714286 0 -0.1)
(6.39214285714286 0 -0.1)
(6.40214285714286 0 -0.1)
(6.41214285714286 0 -0.1)
(6.42214285714286 0 -0.1)
(6.43214285714286 0 -0.1)
(6.44214285714286 0 -0.1)
(6.45214285714286 0 -0.1)
(6.46214285714286 0 -0.1)
(6.47214285714286 0 -0.1)
(6.48214285714286 0 -0.1)
(6.49214285714286 0 -0.1)
(6.50214285714286 0 -0.1)
(6.51214285714286 0 -0.1)
(6.52214285714286 0 -0.1)
(6.53214285714286 0 -0.1)
(6.54214285714286 0 -0.1)
(6.55214285714286 0 -0.1)
(6.56214285714286 0 -0.1)
(6.57214285714286 0 -0.1)
(6.58214285714286 0 -0.1)
(6.59214285714286 0 -0.1)
(6.60214285714286 0 -0.1)
(6.61214285714286 0 -0.1)
(6.62214285714286 0 -0.1)
(6.63214285714286 0 -0.1)
(6.64214285714286 0 -0.1)
(6.65214285714286 0 -0.1)
(6.66214285714286 0 -0.1)
(6.67214285714286 0 -0.1)
(6.68214285714286 0 -0.1)
(6.69214285714286 0 -0.1)
(6.70214285714286 0 -0.1)
(6.71214285714286 0 -0.1)
(6.72214285714286 0 -0.1)
(6.73214285714286 0 -0.1)
(6.74214285714286 0 -0.1)
(6.75214285714286 0 -0.1)
(6.76214285714286 0 -0.1)
(6.77214285714286 0 -0.1)
(6.78214285714286 0 -0.1)
(6.79214285714286 0 -0.1)
(6.80214285714286 0 -0.1)
(6.81214285714286 0 -0.1)
(6.82214285714286 0 -0.1)
(6.83214285714286 0 -0.1)
(6.84214285714286 0 -0.1)
(6.85214285714286 0 -0.1)
(6.86214285714286 0 -0.1)
(6.87214285714286 0 -0.1)
(6.88214285714286 0 -0.1)
(6.89214285714286 0 -0.1)
(6.90214285714286 0 -0.1)
(6.91214285714286 0 -0.1)
(6.92214285714286 0 -0.1)
(6.93214285714286 0 -0.1)
(6.94214285714286 0 -0.1)
(6.95214285714286 0 -0.1)
(6.96214285714286 0 -0.1)
(6.97214285714286 0 -0.1)
(6.98214285714286 0 -0.1)
(6.99214285714286 0 -0.1)
(7.00214285714286 0 -0.1)
(7.01214285714286 0 -0.1)
(7.02214285714286 0 -0.1)
(7.03214285714286 0 -0.1)
(7.04214285714286 0 -0.1)
(7.05214285714286 0 -0.1)
(7.06214285714286 0 -0.1)
(7.07214285714286 0 -0.1)
(7.08214285714286 0 -0.1)
(7.09214285714286 0 -0.1)
(7.10214285714286 0 -0.1)
(7.11214285714286 0 -0.1)
(7.12214285714286 0 -0.1)
(7.13214285714286 0 -0.1)
(7.14214285714286 0 -0.1)
(7.15214285714286 0 -0.1)
(7.16214285714286 0 -0.1)
(7.17214285714286 0 -0.1)
(7.18214285714286 0 -0.1)
(7.19214285714286 0 -0.1)
(7.20214285714286 0 -0.1)
(7.21214285714286 0 -0.1)
(7.22214285714286 0 -0.1)
(7.23214285714286 0 -0.1)
(7.24214285714286 0 -0.1)
(7.25214285714286 0 -0.1)
(7.26214285714286 0 -0.1)
(7.27214285714286 0 -0.1)
(7.28214285714286 0 -0.1)
(7.29214285714286 0 -0.1)
(7.30214285714286 0 -0.1)
(7.31214285714286 0 -0.1)
(7.32214285714286 0 -0.1)
(7.33214285714286 0 -0.1)
(7.34214285714286 0 -0.1)
(7.35214285714286 0 -0.1)
(7.36214285714286 0 -0.1)
(7.37214285714286 0 -0.1)
(7.38214285714286 0 -0.1)
(7.39214285714286 0 -0.1)
(7.40214285714286 0 -0.1)
(7.41214285714286 0 -0.1)
(7.42214285714286 0 -0.1)
(7.43214285714286 0 -0.1)
(7.44214285714286 0 -0.1)
(7.45214285714286 0 -0.1)
(7.46214285714286 0 -0.1)
(7.47214285714286 0 -0.1)
(7.48214285714286 0 -0.1)
(7.49214285714286 0 -0.1)
(7.50214285714286 0 -0.1)
(7.51214285714286 0 -0.1)
(7.52214285714286 0 -0.1)
(7.53214285714286 0 -0.1)
(7.54214285714286 0 -0.1)
(7.55214285714286 0 -0.1)
(7.56428571428571 4.27396932978853e-05 -0.1)
(7.57678571428571 0.000200566785812769 -0.1)
(7.58928571428571 0.000474543087993487 -0.1)
(7.60178571428571 0.000864542768961101 -0.1)
(7.61428571428571 0.00137043999783886 -0.1)
(7.62678571428571 0.0019921089437483 -0.1)
(7.63928571428571 0.00272942377581226 -0.1)
(7.65178571428571 0.00358225866315225 -0.1)
(7.66428571428571 0.00455048777489158 -0.1)
(7.67678571428571 0.0056339852801517 -0.1)
(7.68928571428571 0.00683262534805581 -0.1)
(7.70178571428571 0.0081462821477249 -0.1)
(7.71428571428571 0.00957482984828263 -0.1)
(7.72678571428571 0.0111181426188502 -0.1)
(7.73928571428571 0.0127760946285508 -0.1)
(7.75178571428571 0.0145485600465056 -0.1)
(7.76428571428571 0.0164354130418385 -0.1)
(7.77678571428571 0.0184365277836701 -0.1)
(7.78928571428571 0.020551778441124 -0.1)
(7.80178571428571 0.0227810391833216 -0.1)
(7.81428571428571 0.0251241841793858 -0.1)
(7.82678571428571 0.0275810875984384 -0.1)
(7.83928571428571 0.0301516236096021 -0.1)
(7.85178571428571 0.0328356663819988 -0.1)
(7.86428571428571 0.0356330900847517 -0.1)
(7.87678571428571 0.0385437688869816 -0.1)
(7.88928571428571 0.0415675769578115 -0.1)
(7.90178571428571 0.0447043884663645 -0.1)
(7.91428571428571 0.047954077581762 -0.1)
(7.92678571428571 0.0513165184731262 -0.1)
(7.93928571428571 0.0547915853095796 -0.1)
(7.95178571428571 0.0583791522602451 -0.1)
(7.96428571428571 0.0620790934942439 -0.1)
(7.97678571428571 0.0658912831806991 -0.1)
(7.98928571428571 0.0698155954887321 -0.1)
(8.00178571428571 0.0738519045874666 -0.1)
(8.01428571428571 0.0780000846460239 -0.1)
(8.02678571428571 0.0822600098335262 -0.1)
(8.03928571428571 0.0866315543190961 -0.1)
(8.05178571428571 0.0911145922718564 -0.1)
(8.06428571428571 0.0957089978609283 -0.1)
(8.07678571428571 0.100414645255435 -0.1)
(8.08928571428571 0.105231408624498 -0.1)
(8.10178571428571 0.110159162137241 -0.1)
(8.11428571428571 0.115197779962784 -0.1)
(8.12678571428571 0.120347136270252 -0.1)
(8.13928571428571 0.125607105228765 -0.1)
(8.15178571428571 0.130977561007447 -0.1)
(8.16428571428571 0.136458377775419 -0.1)
(8.17678571428572 0.142049429701804 -0.1)
(8.18928571428571 0.147750294222336 -0.1)
(8.20178571428571 0.153558717538884 -0.1)
(8.21428571428572 0.159471747980658 -0.1)
(8.22678571428571 0.165486432502636 -0.1)
(8.23928571428571 0.171599818059795 -0.1)
(8.25178571428571 0.177808951607113 -0.1)
(8.26428571428572 0.18411088009957 -0.1)
(8.27678571428572 0.190502650492142 -0.1)
(8.28928571428571 0.196981309739807 -0.1)
(8.30178571428571 0.203543904797542 -0.1)
(8.31428571428571 0.210187482620327 -0.1)
(8.32678571428571 0.21690909016314 -0.1)
(8.33928571428571 0.223705774380954 -0.1)
(8.35178571428571 0.230574582228754 -0.1)
(8.36428571428571 0.237512560661514 -0.1)
(8.37678571428571 0.244516756634211 -0.1)
(8.38928571428571 0.251584217101826 -0.1)
(8.40178571428572 0.258711989019335 -0.1)
(8.41428571428571 0.265897119341715 -0.1)
(8.42678571428571 0.273136655023946 -0.1)
(8.43928571428571 0.280427643021005 -0.1)
(8.45178571428571 0.287767130287869 -0.1)
(8.46428571428571 0.295152163779517 -0.1)
(8.47678571428571 0.302579790450927 -0.1)
(8.48928571428572 0.310047057257076 -0.1)
(8.50178571428571 0.317551011152942 -0.1)
(8.51428571428571 0.325088699093504 -0.1)
(8.52678571428572 0.332657168033739 -0.1)
(8.53928571428571 0.340253464928625 -0.1)
(8.55178571428571 0.34787463673314 -0.1)
(8.56428571428571 0.355517730402261 -0.1)
(8.57678571428572 0.363179792890968 -0.1)
(8.58928571428572 0.370857871154237 -0.1)
(8.60178571428571 0.378549012147047 -0.1)
(8.61428571428571 0.386250262824374 -0.1)
(8.62678571428571 0.39395867204875 -0.1)
(8.63928571428571 0.401672258012372 -0.1)
(8.65178571428571 0.4093915824375 -0.1)
(8.66428571428571 0.417117619202161 -0.1)
(8.67678571428571 0.42485134218438 -0.1)
(8.68928571428571 0.432593725262183 -0.1)
(8.70178571428571 0.440345742313596 -0.1)
(8.71428571428572 0.448108367216644 -0.1)
(8.72678571428571 0.455882573849353 -0.1)
(8.73928571428571 0.463669336089748 -0.1)
(8.75178571428571 0.471469627815856 -0.1)
(8.76428571428572 0.479284422905703 -0.1)
(8.77678571428572 0.487114695237313 -0.1)
(8.78928571428571 0.494961418688711 -0.1)
(8.80178571428572 0.502825567137925 -0.1)
(8.81428571428571 0.510708114462981 -0.1)
(8.82678571428571 0.518610034541902 -0.1)
(8.83928571428571 0.526532301252716 -0.1)
(8.85178571428571 0.534475888473447 -0.1)
(8.86428571428572 0.542441770082124 -0.1)
(8.87678571428571 0.550430919956769 -0.1)
(8.88928571428572 0.558444311975409 -0.1)
(8.90178571428572 0.56648292001607 -0.1)
(8.91428571428571 0.574547717956778 -0.1)
(8.92678571428571 0.582639679675556 -0.1)
(8.93928571428571 0.590759779050434 -0.1)
(8.95178571428571 0.598908989959435 -0.1)
(8.96428571428571 0.607088286280584 -0.1)
(8.97678571428572 0.615298641891911 -0.1)
(8.98928571428572 0.623541030671437 -0.1)
(9.00178571428571 0.631816426497189 -0.1)
(9.01428571428571 0.640125803247193 -0.1)
(9.02678571428572 0.648470134799476 -0.1)
(9.03928571428571 0.656850395032062 -0.1)
(9.05178571428571 0.665267557822977 -0.1)
(9.06428571428571 0.673722597050246 -0.1)
(9.07678571428572 0.68221637343649 -0.1)
(9.08928571428572 0.690746009372104 -0.1)
(9.10178571428571 0.699304121972797 -0.1)
(9.11428571428572 0.707883060132851 -0.1)
(9.12678571428571 0.716475172746543 -0.1)
(9.13928571428571 0.725072808708154 -0.1)
(9.15178571428571 0.733668316911962 -0.1)
(9.16428571428571 0.742254046252249 -0.1)
(9.17678571428572 0.750822345623292 -0.1)
(9.18928571428571 0.75936556391937 -0.1)
(9.20178571428572 0.767876050034764 -0.1)
(9.21428571428572 0.776346152863752 -0.1)
(9.22678571428571 0.784768221300614 -0.1)
(9.23928571428571 0.793134604239629 -0.1)
(9.25178571428571 0.801437650575077 -0.1)
(9.26428571428571 0.809669709201238 -0.1)
(9.27678571428571 0.817823129012389 -0.1)
(9.28928571428572 0.825890258902813 -0.1)
(9.30178571428572 0.833863447766787 -0.1)
(9.31428571428571 0.841735044498589 -0.1)
(9.32678571428571 0.849497397992501 -0.1)
(9.33928571428572 0.857142857142802 -0.1)
(9.35178571428571 0.864663564429211 -0.1)
(9.36428571428571 0.872050836671945 -0.1)
(9.37678571428571 0.879295784277017 -0.1)
(9.38928571428572 0.886389517650266 -0.1)
(9.40178571428572 0.893323147197522 -0.1)
(9.41428571428571 0.900087783324624 -0.1)
(9.42678571428572 0.906674536437407 -0.1)
(9.43928571428571 0.913074516941706 -0.1)
(9.45178571428571 0.919278835243357 -0.1)
(9.46428571428571 0.925278601748195 -0.1)
(9.47678571428571 0.931064926862056 -0.1)
(9.48928571428572 0.936628920990776 -0.1)
(9.50178571428571 0.941961694540189 -0.1)
(9.51428571428572 0.947054357916131 -0.1)
(9.52678571428572 0.951898021524438 -0.1)
(9.53928571428571 0.956483795770946 -0.1)
(9.55178571428571 0.960802791061488 -0.1)
(9.56428571428571 0.964846126977344 -0.1)
(9.57678571428571 0.96860958430209 -0.1)
(9.58928571428572 0.97210117488589 -0.1)
(9.60178571428572 0.9753308925074 -0.1)
(9.61428571428572 0.978308730945278 -0.1)
(9.62678571428571 0.98104468397818 -0.1)
(9.63928571428571 0.983548745384765 -0.1)
(9.65178571428572 0.985830908943689 -0.1)
(9.66428571428571 0.987901168433611 -0.1)
(9.67678571428571 0.989769517633187 -0.1)
(9.68928571428571 0.991445950321075 -0.1)
(9.70178571428572 0.992940460275932 -0.1)
(9.71428571428572 0.994263041276416 -0.1)
(9.72678571428571 0.995423687101183 -0.1)
(9.73928571428572 0.996432391528892 -0.1)
(9.75178571428571 0.997299148338199 -0.1)
(9.76428571428571 0.998033951307763 -0.1)
(9.77678571428571 0.998646794216239 -0.1)
(9.78928571428571 0.999147670842287 -0.1)
(9.80178571428572 0.999546574964562 -0.1)
(9.81428571428571 0.999853500361723 -0.1)
(9.82678571428572 1 -0.1)
(9.83928571428572 1 -0.1)
(9.85178571428571 1 -0.1)
(9.86428571428571 1 -0.1)
(9.87678571428571 1 -0.1)
(9.88928571428571 1 -0.1)
(9.90178571428572 1 -0.1)
(9.91428571428572 1 -0.1)
(9.92678571428572 1 -0.1)
(9.93928571428571 1 -0.1)
(9.95178571428571 1 -0.1)
)
spline 4 5 (
(0 1 0.1)
(0.0125 1 0.1)
(0.025 1 0.1)
(0.0375 1 0.1)
(0.05 1 0.1)
(0.0625 1 0.1)
(0.075 1 0.1)
(0.0875 1 0.1)
(0.1 1 0.1)
(0.1125 1 0.1)
(0.125 1 0.1)
(0.1375 1 0.1)
(0.15 0.999853500361723 0.1)
(0.1625 0.999546574964562 0.1)
(0.175 0.999147670842287 0.1)
(0.1875 0.998646794216239 0.1)
(0.2 0.998033951307763 0.1)
(0.2125 0.997299148338199 0.1)
(0.225 0.996432391528892 0.1)
(0.2375 0.995423687101183 0.1)
(0.25 0.994263041276416 0.1)
(0.2625 0.992940460275932 0.1)
(0.275 0.991445950321075 0.1)
(0.2875 0.989769517633187 0.1)
(0.3 0.987901168433611 0.1)
(0.3125 0.985830908943689 0.1)
(0.325 0.983548745384765 0.1)
(0.3375 0.98104468397818 0.1)
(0.35 0.978308730945277 0.1)
(0.3625 0.9753308925074 0.1)
(0.375 0.97210117488589 0.1)
(0.3875 0.968609584302091 0.1)
(0.4 0.964846126977344 0.1)
(0.4125 0.960802791061489 0.1)
(0.425 0.956483795770945 0.1)
(0.4375 0.951898021524438 0.1)
(0.45 0.947054357916131 0.1)
(0.4625 0.941961694540189 0.1)
(0.475 0.936628920990776 0.1)
(0.4875 0.931064926862056 0.1)
(0.5 0.925278601748195 0.1)
(0.5125 0.919278835243357 0.1)
(0.525 0.913074516941706 0.1)
(0.5375 0.906674536437407 0.1)
(0.55 0.900087783324624 0.1)
(0.5625 0.893323147197522 0.1)
(0.575 0.886389517650265 0.1)
(0.5875 0.879295784277018 0.1)
(0.6 0.872050836671945 0.1)