/*--------------------------------*- C++ -*----------------------------------*\
  =========                 |
  \\      /  F ield         | OpenFOAM: The Open Source CFD Toolbox
   \\    /   O peration     | Website:  https://openfoam.org
    \\  /    A nd           | Version:  7
     \\/     M anipulation  |
\*---------------------------------------------------------------------------*/
FoamFile
{
    version     2.0;
    format      ascii;
    class       volScalarField;
    location    "constant";
    object      Cz;
}
// * * * * * * * * * * * * * * * * * * * * * * * * * * * * * * * * * * * * * //

dimensions      [0 1 0 0 0 0 0];

internalField   nonuniform List<scalar> 
6627
(
4.681223506e-05
4.681223507e-05
4.681223507e-05
4.681223506e-05
4.681223507e-05
4.681223507e-05
4.681223507e-05
4.681223507e-05
4.681223507e-05
4.681223507e-05
4.681223507e-05
4.681223506e-05
4.681223507e-05
4.681223507e-05
4.681223507e-05
4.681223506e-05
4.681223507e-05
4.681223507e-05
4.681223507e-05
4.681223507e-05
4.681223507e-05
4.681223507e-05
4.681223507e-05
4.681223507e-05
4.681223506e-05
4.681223506e-05
4.681223507e-05
4.681223507e-05
4.681223507e-05
4.681223507e-05
4.681223507e-05
4.681223507e-05
4.681223507e-05
4.681223506e-05
4.681223506e-05
4.681223507e-05
4.681223507e-05
4.681223507e-05
4.681223507e-05
4.681223507e-05
4.681223507e-05
4.681223506e-05
4.681223507e-05
4.681223507e-05
4.681223507e-05
4.681223506e-05
4.681223507e-05
0.0001389934405
0.0001389934405
0.0001389934405
0.0001389934405
0.0001389934405
0.0001389934405
0.0001389934405
0.0001389934405
0.0001389934405
0.0001389934405
0.0001389934405
0.0001389934405
0.0001389934405
0.0001389934405
0.0001389934405
0.0001389934405
0.0001389934405
0.0001389934405
0.0001389934405
0.0001389934405
0.0001389934405
0.0001389934405
0.0001389934405
0.0001389934405
0.0001389934405
0.0001389934405
0.0001389934405
0.0001389934405
0.0001389934405
0.0001389934405
0.0001389934405
0.0001389934405
0.0001389934405
0.0001389934405
0.0001389934405
0.0001389934405
0.0001389934405
0.0001389934405
0.0001389934405
0.0001389934405
0.0001389934405
0.0001389934405
0.0001389934405
0.0001389934405
0.0001389934405
0.0001389934405
0.0001389934405
0.0002283326138
0.0002283326138
0.0002283326138
0.0002283326138
0.0002283326138
0.0002283326138
0.0002283326138
0.0002283326138
0.0002283326138
0.0002283326138
0.0002283326138
0.0002283326138
0.0002283326138
0.0002283326138
0.0002283326138
0.0002283326138
0.0002283326138
0.0002283326138
0.0002283326138
0.0002283326138
0.0002283326138
0.0002283326138
0.0002283326138
0.0002283326138
0.0002283326138
0.0002283326138
0.0002283326138
0.0002283326138
0.0002283326138
0.0002283326138
0.0002283326138
0.0002283326138
0.0002283326138
0.0002283326138
0.0002283326138
0.0002283326138
0.0002283326138
0.0002283326138
0.0002283326138
0.0002283326138
0.0002283326138
0.0002283326138
0.0002283326138
0.0002283326138
0.0002283326138
0.0002283326138
0.0002283326138
0.0003149173775
0.0003149173775
0.0003149173775
0.0003149173774
0.0003149173774
0.0003149173774
0.0003149173774
0.0003149173774
0.0003149173774
0.0003149173774
0.0003149173774
0.0003149173774
0.0003149173774
0.0003149173774
0.0003149173774
0.0003149173775
0.0003149173775
0.0003149173775
0.0003149173774
0.0003149173775
0.0003149173774
0.0003149173775
0.0003149173774
0.0003149173774
0.0003149173774
0.0003149173774
0.0003149173774
0.0003149173775
0.0003149173775
0.0003149173774
0.0003149173774
0.0003149173774
0.0003149173774
0.0003149173775
0.0003149173775
0.0003149173775
0.0003149173775
0.0003149173774
0.0003149173775
0.0003149173774
0.0003149173774
0.0003149173774
0.0003149173775
0.0003149173774
0.0003149173774
0.0003149173775
0.0003149173775
0.0003988326525
0.0003988326525
0.0003988326525
0.0003988326524
0.0003988326525
0.0003988326524
0.0003988326525
0.0003988326524
0.0003988326525
0.0003988326525
0.0003988326525
0.0003988326525
0.0003988326524
0.0003988326525
0.0003988326524
0.0003988326525
0.0003988326524
0.0003988326524
0.0003988326524
0.0003988326525
0.0003988326525
0.0003988326525
0.0003988326525
0.0003988326525
0.0003988326524
0.0003988326525
0.0003988326525
0.0003988326525
0.0003988326524
0.0003988326525
0.0003988326525
0.0003988326524
0.0003988326525
0.0003988326525
0.0003988326524
0.0003988326525
0.0003988326525
0.0003988326525
0.0003988326525
0.0003988326525
0.0003988326525
0.0003988326525
0.0003988326525
0.0003988326525
0.0003988326525
0.0003988326525
0.0003988326524
0.0004801607416
0.0004801607416
0.0004801607416
0.0004801607416
0.0004801607416
0.0004801607416
0.0004801607416
0.0004801607416
0.0004801607416
0.0004801607416
0.0004801607416
0.0004801607416
0.0004801607416
0.0004801607416
0.0004801607416
0.0004801607416
0.0004801607416
0.0004801607416
0.0004801607416
0.0004801607416
0.0004801607416
0.0004801607416
0.0004801607416
0.0004801607416
0.0004801607416
0.0004801607416
0.0004801607416
0.0004801607416
0.0004801607416
0.0004801607416
0.0004801607416
0.0004801607416
0.0004801607416
0.0004801607416
0.0004801607416
0.0004801607416
0.0004801607416
0.0004801607416
0.0004801607416
0.0004801607416
0.0004801607416
0.0004801607416
0.0004801607416
0.0004801607416
0.0004801607416
0.0004801607416
0.0004801607416
0.0005589814103
0.0005589814103
0.0005589814102
0.0005589814102
0.0005589814102
0.0005589814102
0.0005589814103
0.0005589814102
0.0005589814102
0.0005589814102
0.0005589814102
0.0005589814102
0.0005589814102
0.0005589814103
0.0005589814103
0.0005589814103
0.0005589814102
0.0005589814103
0.0005589814103
0.0005589814102
0.0005589814102
0.0005589814102
0.0005589814103
0.0005589814103
0.0005589814102
0.0005589814102
0.0005589814103
0.0005589814102
0.0005589814103
0.0005589814102
0.0005589814103
0.0005589814103
0.0005589814103
0.0005589814103
0.0005589814102
0.0005589814103
0.0005589814102
0.0005589814103
0.0005589814103
0.0005589814103
0.0005589814103
0.0005589814102
0.0005589814102
0.0005589814102
0.0005589814103
0.0005589814102
0.0005589814103
0.0006353719644
0.0006353719644
0.0006353719645
0.0006353719645
0.0006353719645
0.0006353719645
0.0006353719645
0.0006353719645
0.0006353719644
0.0006353719644
0.0006353719644
0.0006353719645
0.0006353719645
0.0006353719645
0.0006353719645
0.0006353719645
0.0006353719645
0.0006353719645
0.0006353719645
0.0006353719645
0.0006353719644
0.0006353719645
0.0006353719645
0.0006353719644
0.0006353719645
0.0006353719645
0.0006353719645
0.0006353719644
0.0006353719645
0.0006353719645
0.0006353719645
0.0006353719645
0.0006353719645
0.0006353719645
0.0006353719645
0.0006353719644
0.0006353719645
0.0006353719645
0.0006353719645
0.0006353719645
0.0006353719645
0.0006353719645
0.0006353719645
0.0006353719645
0.0006353719645
0.0006353719645
0.0006353719645
0.0007094073269
0.000709407327
0.0007094073269
0.000709407327
0.000709407327
0.0007094073269
0.000709407327
0.000709407327
0.0007094073269
0.000709407327
0.0007094073269
0.000709407327
0.000709407327
0.0007094073269
0.000709407327
0.0007094073269
0.000709407327
0.0007094073269
0.0007094073269
0.0007094073269
0.0007094073269
0.000709407327
0.000709407327
0.000709407327
0.000709407327
0.0007094073269
0.0007094073269
0.000709407327
0.0007094073269
0.0007094073269
0.000709407327
0.0007094073269
0.000709407327
0.0007094073269
0.000709407327
0.000709407327
0.000709407327
0.0007094073269
0.000709407327
0.000709407327
0.0007094073269
0.000709407327
0.000709407327
0.000709407327
0.000709407327
0.0007094073269
0.000709407327
0.0007811601105
0.0007811601105
0.0007811601105
0.0007811601105
0.0007811601105
0.0007811601105
0.0007811601105
0.0007811601105
0.0007811601105
0.0007811601105
0.0007811601105
0.0007811601105
0.0007811601105
0.0007811601105
0.0007811601105
0.0007811601105
0.0007811601105
0.0007811601105
0.0007811601105
0.0007811601105
0.0007811601105
0.0007811601105
0.0007811601105
0.0007811601105
0.0007811601105
0.0007811601105
0.0007811601105
0.0007811601105
0.0007811601105
0.0007811601105
0.0007811601105
0.0007811601105
0.0007811601105
0.0007811601105
0.0007811601105
0.0007811601105
0.0007811601105
0.0007811601105
0.0007811601105
0.0007811601105
0.0007811601105
0.0007811601105
0.0007811601105
0.0007811601105
0.0007811601105
0.0007811601105
0.0007811601105
0.0008507006891
0.0008507006891
0.0008507006891
0.0008507006891
0.0008507006891
0.0008507006891
0.0008507006891
0.0008507006891
0.0008507006891
0.0008507006891
0.0008507006891
0.0008507006891
0.0008507006891
0.0008507006891
0.0008507006891
0.0008507006891
0.0008507006891
0.0008507006891
0.0008507006891
0.0008507006891
0.0008507006891
0.0008507006891
0.0008507006891
0.0008507006891
0.0008507006891
0.0008507006891
0.0008507006891
0.0008507006891
0.0008507006891
0.0008507006891
0.0008507006891
0.0008507006891
0.0008507006891
0.0008507006891
0.0008507006891
0.0008507006891
0.0008507006891
0.0008507006891
0.0008507006891
0.0008507006891
0.0008507006891
0.0008507006891
0.0008507006891
0.0008507006891
0.0008507006891
0.0008507006891
0.0008507006891
0.0009180972671
0.0009180972671
0.0009180972671
0.0009180972671
0.0009180972671
0.0009180972671
0.0009180972671
0.0009180972671
0.0009180972671
0.0009180972671
0.0009180972671
0.0009180972671
0.0009180972671
0.0009180972671
0.0009180972671
0.0009180972671
0.0009180972671
0.0009180972671
0.0009180972671
0.0009180972671
0.0009180972671
0.0009180972671
0.0009180972671
0.0009180972671
0.0009180972671
0.0009180972671
0.0009180972671
0.0009180972671
0.0009180972671
0.0009180972671
0.0009180972671
0.0009180972671
0.0009180972671
0.0009180972671
0.0009180972671
0.0009180972671
0.0009180972671
0.0009180972671
0.0009180972671
0.0009180972671
0.0009180972671
0.0009180972671
0.0009180972671
0.0009180972671
0.0009180972671
0.0009180972671
0.0009180972671
0.000983415946
0.000983415946
0.000983415946
0.000983415946
0.000983415946
0.000983415946
0.000983415946
0.000983415946
0.000983415946
0.000983415946
0.000983415946
0.000983415946
0.000983415946
0.000983415946
0.000983415946
0.000983415946
0.000983415946
0.000983415946
0.000983415946
0.000983415946
0.000983415946
0.000983415946
0.000983415946
0.000983415946
0.000983415946
0.000983415946
0.000983415946
0.000983415946
0.000983415946
0.000983415946
0.000983415946
0.000983415946
0.000983415946
0.000983415946
0.000983415946
0.000983415946
0.000983415946
0.000983415946
0.000983415946
0.000983415946
0.000983415946
0.000983415946
0.000983415946
0.000983415946
0.000983415946
0.000983415946
0.000983415946
0.001046720789
0.001046720789
0.001046720789
0.001046720789
0.001046720789
0.001046720789
0.001046720789
0.001046720789
0.001046720789
0.001046720789
0.001046720789
0.001046720789
0.001046720789
0.001046720789
0.001046720789
0.001046720789
0.001046720789
0.001046720789
0.001046720789
0.00104672079
0.001046720789
0.001046720789
0.001046720789
0.001046720789
0.001046720789
0.001046720789
0.001046720789
0.001046720789
0.001046720789
0.001046720789
0.001046720789
0.001046720789
0.001046720789
0.001046720789
0.001046720789
0.001046720789
0.001046720789
0.001046720789
0.001046720789
0.001046720789
0.001046720789
0.001046720789
0.001046720789
0.001046720789
0.001046720789
0.001046720789
0.001046720789
0.001108073886
0.001108073886
0.001108073886
0.001108073886
0.001108073886
0.001108073886
0.001108073886
0.001108073886
0.001108073886
0.001108073886
0.001108073886
0.001108073886
0.001108073886
0.001108073886
0.001108073886
0.001108073886
0.001108073886
0.001108073886
0.001108073886
0.001108073886
0.001108073886
0.001108073886
0.001108073886
0.001108073886
0.001108073886
0.001108073886
0.001108073886
0.001108073886
0.001108073886
0.001108073886
0.001108073886
0.001108073886
0.001108073886
0.001108073886
0.001108073886
0.001108073886
0.001108073886
0.001108073886
0.001108073886
0.001108073886
0.001108073886
0.001108073886
0.001108073886
0.001108073886
0.001108073886
0.001108073886
0.001108073886
0.00116753541
0.001167535409
0.00116753541
0.001167535409
0.001167535409
0.001167535409
0.001167535409
0.001167535409
0.001167535409
0.001167535409
0.001167535409
0.001167535409
0.00116753541
0.001167535409
0.00116753541
0.001167535409
0.001167535409
0.00116753541
0.001167535409
0.001167535409
0.001167535409
0.00116753541
0.001167535409
0.001167535409
0.001167535409
0.001167535409
0.00116753541
0.001167535409
0.001167535409
0.00116753541
0.001167535409
0.001167535409
0.001167535409
0.00116753541
0.001167535409
0.00116753541
0.00116753541
0.00116753541
0.001167535409
0.001167535409
0.001167535409
0.001167535409
0.001167535409
0.001167535409
0.001167535409
0.001167535409
0.001167535409
0.001225163678
0.001225163678
0.001225163678
0.001225163678
0.001225163679
0.001225163678
0.001225163679
0.001225163678
0.001225163679
0.001225163678
0.001225163679
0.001225163678
0.001225163678
0.001225163678
0.001225163679
0.001225163679
0.001225163678
0.001225163679
0.001225163678
0.001225163678
0.001225163678
0.001225163678
0.001225163678
0.001225163678
0.001225163679
0.001225163678
0.001225163678
0.001225163679
0.001225163678
0.001225163678
0.001225163678
0.001225163679
0.001225163678
0.001225163678
0.001225163678
0.001225163678
0.001225163678
0.001225163678
0.001225163678
0.001225163678
0.001225163679
0.001225163678
0.001225163679
0.001225163678
0.001225163678
0.001225163678
0.001225163678
0.001281015214
0.001281015214
0.001281015214
0.001281015214
0.001281015214
0.001281015214
0.001281015214
0.001281015214
0.001281015214
0.001281015214
0.001281015214
0.001281015214
0.001281015214
0.001281015214
0.001281015214
0.001281015214
0.001281015214
0.001281015214
0.001281015214
0.001281015214
0.001281015214
0.001281015214
0.001281015214
0.001281015214
0.001281015214
0.001281015214
0.001281015214
0.001281015214
0.001281015214
0.001281015214
0.001281015214
0.001281015214
0.001281015214
0.001281015214
0.001281015214
0.001281015214
0.001281015214
0.001281015214
0.001281015214
0.001281015214
0.001281015214
0.001281015214
0.001281015214
0.001281015214
0.001281015214
0.001281015214
0.001281015214
0.001335144796
0.001335144797
0.001335144796
0.001335144797
0.001335144796
0.001335144796
0.001335144796
0.001335144796
0.001335144796
0.001335144796
0.001335144796
0.001335144796
0.001335144796
0.001335144797
0.001335144796
0.001335144797
0.001335144796
0.001335144796
0.001335144797
0.001335144796
0.001335144796
0.001335144796
0.001335144796
0.001335144797
0.001335144796
0.001335144796
0.001335144796
0.001335144796
0.001335144796
0.001335144796
0.001335144796
0.001335144796
0.001335144797
0.001335144796
0.001335144797
0.001335144796
0.001335144796
0.001335144796
0.001335144796
0.001335144796
0.001335144796
0.001335144796
0.001335144796
0.001335144797
0.001335144796
0.001335144796
0.001335144797
0.001387605513
0.001387605513
0.001387605513
0.001387605513
0.001387605513
0.001387605513
0.001387605513
0.001387605513
0.001387605513
0.001387605513
0.001387605513
0.001387605513
0.001387605513
0.001387605513
0.001387605513
0.001387605513
0.001387605513
0.001387605513
0.001387605513
0.001387605513
0.001387605513
0.001387605513
0.001387605513
0.001387605513
0.001387605513
0.001387605513
0.001387605513
0.001387605513
0.001387605513
0.001387605513
0.001387605513
0.001387605513
0.001387605513
0.001387605513
0.001387605513
0.001387605513
0.001387605513
0.001387605513
0.001387605513
0.001387605513
0.001387605513
0.001387605513
0.001387605513
0.001387605513
0.001387605513
0.001387605513
0.001387605513
0.001438448816
0.001438448816
0.001438448816
0.001438448817
0.001438448816
0.001438448816
0.001438448816
0.001438448816
0.001438448816
0.001438448816
0.001438448816
0.001438448816
0.001438448816
0.001438448816
0.001438448817
0.001438448816
0.001438448816
0.001438448817
0.001438448817
0.001438448816
0.001438448816
0.001438448816
0.001438448816
0.001438448816
0.001438448816
0.001438448816
0.001438448816
0.001438448816
0.001438448816
0.001438448816
0.001438448816
0.001438448816
0.001438448816
0.001438448816
0.001438448816
0.001438448816
0.001438448816
0.001438448816
0.001438448816
0.001438448816
0.001438448816
0.001438448816
0.001438448816
0.001438448817
0.001438448817
0.001438448816
0.001438448816
0.001487724574
0.001487724574
0.001487724574
0.001487724574
0.001487724574
0.001487724574
0.001487724574
0.001487724574
0.001487724574
0.001487724574
0.001487724574
0.001487724574
0.001487724574
0.001487724574
0.001487724574
0.001487724574
0.001487724574
0.001487724574
0.001487724574
0.001487724574
0.001487724574
0.001487724574
0.001487724574
0.001487724574
0.001487724574
0.001487724574
0.001487724574
0.001487724574
0.001487724574
0.001487724574
0.001487724574
0.001487724574
0.001487724574
0.001487724574
0.001487724574
0.001487724574
0.001487724574
0.001487724574
0.001487724574
0.001487724574
0.001487724574
0.001487724574
0.001487724574
0.001487724574
0.001487724574
0.001487724574
0.001487724574
0.001535481114
0.001535481115
0.001535481115
0.001535481114
0.001535481114
0.001535481115
0.001535481115
0.001535481114
0.001535481115
0.001535481114
0.001535481114
0.001535481114
0.001535481114
0.001535481114
0.001535481114
0.001535481115
0.001535481114
0.001535481114
0.001535481114
0.001535481114
0.001535481114
0.001535481115
0.001535481114
0.001535481115
0.001535481115
0.001535481114
0.001535481115
0.001535481114
0.001535481114
0.001535481114
0.001535481115
0.001535481114
0.001535481115
0.001535481115
0.001535481115
0.001535481115
0.001535481114
0.001535481115
0.001535481115
0.001535481115
0.001535481115
0.001535481114
0.001535481114
0.001535481114
0.001535481114
0.001535481114
0.001535481115
0.001581765276
0.001581765276
0.001581765276
0.001581765276
0.001581765276
0.001581765276
0.001581765276
0.001581765276
0.001581765276
0.001581765276
0.001581765276
0.001581765276
0.001581765276
0.001581765276
0.001581765276
0.001581765276
0.001581765276
0.001581765276
0.001581765276
0.001581765276
0.001581765276
0.001581765276
0.001581765276
0.001581765276
0.001581765276
0.001581765276
0.001581765276
0.001581765276
0.001581765276
0.001581765276
0.001581765276
0.001581765276
0.001581765276
0.001581765276
0.001581765276
0.001581765276
0.001581765276
0.001581765276
0.001581765276
0.001581765276
0.001581765276
0.001581765276
0.001581765276
0.001581765276
0.001581765276
0.001581765276
0.001581765276
0.001626622453
0.001626622454
0.001626622453
0.001626622454
0.001626622453
0.001626622454
0.001626622453
0.001626622454
0.001626622453
0.001626622453
0.001626622454
0.001626622453
0.001626622454
0.001626622453
0.001626622453
0.001626622454
0.001626622453
0.001626622454
0.001626622454
0.001626622453
0.001626622454
0.001626622453
0.001626622453
0.001626622454
0.001626622454
0.001626622454
0.001626622454
0.001626622453
0.001626622453
0.001626622454
0.001626622453
0.001626622454
0.001626622453
0.001626622454
0.001626622454
0.001626622453
0.001626622454
0.001626622453
0.001626622453
0.001626622454
0.001626622453
0.001626622453
0.001626622454
0.001626622453
0.001626622454
0.001626622453
0.001626622453
0.001670096643
0.001670096643
0.001670096643
0.001670096643
0.001670096643
0.001670096643
0.001670096643
0.001670096643
0.001670096643
0.001670096643
0.001670096643
0.001670096643
0.001670096643
0.001670096643
0.001670096643
0.001670096643
0.001670096643
0.001670096643
0.001670096643
0.001670096643
0.001670096643
0.001670096643
0.001670096643
0.001670096643
0.001670096643
0.001670096643
0.001670096643
0.001670096643
0.001670096643
0.001670096643
0.001670096643
0.001670096643
0.001670096643
0.001670096643
0.001670096643
0.001670096643
0.001670096643
0.001670096643
0.001670096643
0.001670096643
0.001670096643
0.001670096643
0.001670096643
0.001670096643
0.001670096643
0.001670096643
0.001670096643
0.001712230483
0.001712230483
0.001712230483
0.001712230483
0.001712230483
0.001712230483
0.001712230483
0.001712230483
0.001712230483
0.001712230483
0.001712230483
0.001712230483
0.001712230483
0.001712230483
0.001712230483
0.001712230483
0.001712230483
0.001712230483
0.001712230483
0.001712230483
0.001712230483
0.001712230483
0.001712230483
0.001712230483
0.001712230483
0.001712230483
0.001712230483
0.001712230483
0.001712230483
0.001712230483
0.001712230483
0.001712230483
0.001712230483
0.001712230483
0.001712230483
0.001712230483
0.001712230483
0.001712230483
0.001712230483
0.001712230483
0.001712230483
0.001712230483
0.001712230483
0.001712230483
0.001712230483
0.001712230483
0.001712230483
0.001753065297
0.001753065297
0.001753065297
0.001753065298
0.001753065297
0.001753065297
0.001753065297
0.001753065298
0.001753065297
0.001753065297
0.001753065297
0.001753065297
0.001753065297
0.001753065297
0.001753065297
0.001753065297
0.001753065297
0.001753065297
0.001753065297
0.001753065297
0.001753065297
0.001753065297
0.001753065297
0.001753065297
0.001753065297
0.001753065297
0.001753065297
0.001753065297
0.001753065297
0.001753065297
0.001753065297
0.001753065297
0.001753065297
0.001753065297
0.001753065297
0.001753065297
0.001753065297
0.001753065298
0.001753065298
0.001753065297
0.001753065297
0.001753065297
0.001753065298
0.001753065297
0.001753065297
0.001753065297
0.001753065298
0.001792641137
0.001792641137
0.001792641137
0.001792641137
0.001792641137
0.001792641137
0.001792641137
0.001792641137
0.001792641137
0.001792641137
0.001792641137
0.001792641137
0.001792641137
0.001792641137
0.001792641137
0.001792641137
0.001792641137
0.001792641137
0.001792641137
0.001792641137
0.001792641137
0.001792641137
0.001792641137
0.001792641137
0.001792641137
0.001792641137
0.001792641137
0.001792641137
0.001792641137
0.001792641137
0.001792641137
0.001792641137
0.001792641137
0.001792641137
0.001792641137
0.001792641137
0.001792641137
0.001792641137
0.001792641137
0.001792641137
0.001792641137
0.001792641137
0.001792641137
0.001792641137
0.001792641137
0.001792641137
0.001792641137
0.001830996816
0.001830996816
0.001830996817
0.001830996817
0.001830996817
0.001830996816
0.001830996816
0.001830996817
0.001830996817
0.001830996817
0.001830996817
0.001830996817
0.001830996817
0.001830996816
0.001830996817
0.001830996816
0.001830996816
0.001830996817
0.001830996816
0.001830996816
0.001830996817
0.001830996817
0.001830996817
0.001830996816
0.001830996816
0.001830996816
0.001830996817
0.001830996817
0.001830996816
0.001830996817
0.001830996816
0.001830996816
0.001830996816
0.001830996817
0.001830996816
0.001830996816
0.001830996816
0.001830996816
0.001830996816
0.001830996817
0.001830996817
0.001830996816
0.001830996817
0.001830996817
0.001830996816
0.001830996816
0.001830996817
0.001868169955
0.001868169954
0.001868169954
0.001868169954
0.001868169955
0.001868169954
0.001868169954
0.001868169954
0.001868169955
0.001868169954
0.001868169954
0.001868169954
0.001868169954
0.001868169954
0.001868169954
0.001868169954
0.001868169954
0.001868169955
0.001868169954
0.001868169954
0.001868169954
0.001868169955
0.001868169954
0.001868169955
0.001868169954
0.001868169954
0.001868169955
0.001868169955
0.001868169954
0.001868169954
0.001868169954
0.001868169954
0.001868169955
0.001868169954
0.001868169955
0.001868169955
0.001868169954
0.001868169954
0.001868169954
0.001868169954
0.001868169955
0.001868169955
0.001868169954
0.001868169954
0.001868169954
0.001868169955
0.001868169954
0.00190419701
0.001904197011
0.001904197011
0.001904197011
0.001904197011
0.001904197011
0.00190419701
0.001904197011
0.00190419701
0.001904197011
0.001904197011
0.00190419701
0.00190419701
0.001904197011
0.00190419701
0.00190419701
0.00190419701
0.00190419701
0.00190419701
0.001904197011
0.001904197011
0.00190419701
0.001904197011
0.00190419701
0.00190419701
0.001904197011
0.001904197011
0.00190419701
0.001904197011
0.00190419701
0.001904197011
0.001904197011
0.00190419701
0.00190419701
0.00190419701
0.00190419701
0.00190419701
0.001904197011
0.001904197011
0.00190419701
0.00190419701
0.001904197011
0.001904197011
0.001904197011
0.001904197011
0.001904197011
0.00190419701
0.001939113319
0.001939113319
0.001939113319
0.001939113319
0.001939113319
0.001939113319
0.001939113319
0.001939113319
0.001939113319
0.001939113319
0.001939113319
0.001939113319
0.001939113319
0.001939113319
0.001939113319
0.001939113319
0.001939113319
0.001939113319
0.001939113319
0.001939113319
0.001939113319
0.001939113319
0.001939113319
0.001939113319
0.001939113319
0.001939113319
0.001939113319
0.001939113319
0.001939113319
0.001939113319
0.001939113319
0.001939113319
0.001939113319
0.001939113319
0.001939113319
0.001939113319
0.001939113319
0.001939113319
0.001939113319
0.001939113319
0.001939113319
0.001939113319
0.001939113319
0.001939113319
0.001939113319
0.001939113319
0.001939113319
0.001972953125
0.001972953125
0.001972953125
0.001972953125
0.001972953125
0.001972953125
0.001972953125
0.001972953125
0.001972953125
0.001972953125
0.001972953125
0.001972953125
0.001972953125
0.001972953125
0.001972953125
0.001972953125
0.001972953125
0.001972953125
0.001972953125
0.001972953125
0.001972953125
0.001972953125
0.001972953125
0.001972953125
0.001972953125
0.001972953125
0.001972953125
0.001972953125
0.001972953125
0.001972953125
0.001972953125
0.001972953125
0.001972953125
0.001972953125
0.001972953125
0.001972953125
0.001972953125
0.001972953125
0.001972953125
0.001972953125
0.001972953125
0.001972953125
0.001972953125
0.001972953125
0.001972953125
0.001972953125
0.001972953125
0.002005749618
0.002005749618
0.002005749618
0.002005749618
0.002005749618
0.002005749618
0.002005749618
0.002005749618
0.002005749618
0.002005749618
0.002005749618
0.002005749618
0.002005749618
0.002005749618
0.002005749618
0.002005749618
0.002005749618
0.002005749618
0.002005749618
0.002005749618
0.002005749618
0.002005749618
0.002005749618
0.002005749618
0.002005749618
0.002005749618
0.002005749618
0.002005749618
0.002005749618
0.002005749618
0.002005749618
0.002005749618
0.002005749618
0.002005749618
0.002005749618
0.002005749618
0.002005749618
0.002005749618
0.002005749618
0.002005749618
0.002005749618
0.002005749618
0.002005749618
0.002005749618
0.002005749618
0.002005749618
0.002005749618
0.002037534965
0.002037534965
0.002037534965
0.002037534965
0.002037534965
0.002037534965
0.002037534965
0.002037534965
0.002037534965
0.002037534965
0.002037534965
0.002037534965
0.002037534965
0.002037534965
0.002037534965
0.002037534965
0.002037534965
0.002037534965
0.002037534965
0.002037534965
0.002037534965
0.002037534965
0.002037534965
0.002037534965
0.002037534965
0.002037534965
0.002037534965
0.002037534965
0.002037534965
0.002037534965
0.002037534965
0.002037534965
0.002037534965
0.002037534965
0.002037534965
0.002037534965
0.002037534965
0.002037534965
0.002037534965
0.002037534965
0.002037534965
0.002037534965
0.002037534965
0.002037534965
0.002037534965
0.002037534965
0.002037534965
0.00206834034
0.002068340341
0.00206834034
0.00206834034
0.00206834034
0.00206834034
0.00206834034
0.00206834034
0.00206834034
0.00206834034
0.002068340341
0.00206834034
0.002068340341
0.00206834034
0.00206834034
0.00206834034
0.002068340341
0.00206834034
0.00206834034
0.00206834034
0.00206834034
0.00206834034
0.00206834034
0.00206834034
0.00206834034
0.00206834034
0.002068340341
0.00206834034
0.00206834034
0.002068340341
0.00206834034
0.002068340341
0.002068340341
0.00206834034
0.00206834034
0.00206834034
0.00206834034
0.00206834034
0.002068340341
0.002068340341
0.00206834034
0.002068340341
0.002068340341
0.00206834034
0.00206834034
0.00206834034
0.00206834034
0.002098195958
0.002098195957
0.002098195957
0.002098195958
0.002098195958
0.002098195958
0.002098195957
0.002098195957
0.002098195958
0.002098195957
0.002098195958
0.002098195957
0.002098195957
0.002098195958
0.002098195958
0.002098195957
0.002098195957
0.002098195958
0.002098195958
0.002098195957
0.002098195958
0.002098195958
0.002098195957
0.002098195957
0.002098195958
0.002098195957
0.002098195957
0.002098195957
0.002098195957
0.002098195957
0.002098195958
0.002098195958
0.002098195957
0.002098195957
0.002098195957
0.002098195958
0.002098195957
0.002098195957
0.002098195958
0.002098195958
0.002098195957
0.002098195958
0.002098195957
0.002098195957
0.002098195957
0.002098195958
0.002098195958
0.002127131098
0.002127131098
0.002127131098
0.002127131098
0.002127131098
0.002127131098
0.002127131098
0.002127131098
0.002127131098
0.002127131098
0.002127131098
0.002127131098
0.002127131098
0.002127131098
0.002127131098
0.002127131098
0.002127131098
0.002127131098
0.002127131098
0.002127131098
0.002127131098
0.002127131098
0.002127131098
0.002127131098
0.002127131098
0.002127131098
0.002127131098
0.002127131098
0.002127131098
0.002127131098
0.002127131098
0.002127131098
0.002127131098
0.002127131098
0.002127131098
0.002127131098
0.002127131098
0.002127131098
0.002127131098
0.002127131098
0.002127131098
0.002127131098
0.002127131098
0.002127131098
0.002127131098
0.002127131098
0.002127131098
0.002155174141
0.002155174141
0.002155174141
0.002155174141
0.002155174141
0.002155174141
0.002155174141
0.002155174141
0.002155174141
0.002155174141
0.002155174141
0.002155174141
0.002155174141
0.002155174141
0.002155174141
0.002155174141
0.002155174141
0.002155174141
0.002155174141
0.002155174141
0.002155174141
0.002155174141
0.002155174141
0.002155174141
0.002155174141
0.002155174141
0.002155174141
0.002155174141
0.002155174141
0.002155174141
0.002155174141
0.002155174141
0.002155174141
0.002155174141
0.002155174141
0.002155174141
0.002155174141
0.002155174141
0.002155174141
0.002155174141
0.002155174141
0.002155174141
0.002155174141
0.002155174141
0.002155174141
0.002155174141
0.002155174141
0.002182352591
0.002182352592
0.002182352591
0.002182352591
0.002182352591
0.002182352591
0.002182352591
0.002182352591
0.002182352591
0.002182352591
0.002182352591
0.002182352591
0.002182352591
0.002182352591
0.002182352591
0.002182352591
0.002182352591
0.002182352591
0.002182352591
0.002182352591
0.002182352591
0.002182352591
0.002182352591
0.002182352591
0.002182352591
0.002182352591
0.002182352591
0.002182352591
0.002182352591
0.002182352591
0.002182352591
0.002182352591
0.002182352591
0.002182352591
0.002182352591
0.002182352591
0.002182352591
0.002182352591
0.002182352591
0.002182352591
0.002182352591
0.002182352591