/*--------------------------------*- C++ -*----------------------------------*\
  =========                 |
  \\      /  F ield         | OpenFOAM: The Open Source CFD Toolbox
   \\    /   O peration     | Website:  https://openfoam.org
    \\  /    A nd           | Version:  7
     \\/     M anipulation  |
\*---------------------------------------------------------------------------*/
FoamFile
{
    version     2.0;
    format      ascii;
    class       volScalarField;
    location    "constant";
    object      V;
}
// * * * * * * * * * * * * * * * * * * * * * * * * * * * * * * * * * * * * * //

dimensions      [0 3 0 0 0 0 0];

internalField   nonuniform List<scalar> 
6627
(
8.60892511e-12
7.82629555e-12
7.114814142e-12
6.468012861e-12
5.880011679e-12
5.345465173e-12
4.859513793e-12
4.417739812e-12
4.016127095e-12
3.651024636e-12
3.319113307e-12
3.01737573e-12
2.74306885e-12
2.49369895e-12
2.266999045e-12
2.060908227e-12
1.87355293e-12
1.703229936e-12
1.548390857e-12
1.407628048e-12
1.27966186e-12
1.163328962e-12
1.057571791e-12
9.614288973e-13
8.740262694e-13
7.94569335e-13
7.223357625e-13
6.566688699e-13
5.969717076e-13
5.427015438e-13
4.933650432e-13
4.485136791e-13
4.07739698e-13
3.706724596e-13
3.369749718e-13
3.063408672e-13
2.784917069e-13
2.531742832e-13
2.301584299e-13
2.092349431e-13
1.902135778e-13
1.729214378e-13
1.572013088e-13
1.429102824e-13
1.29918436e-13
1.181076623e-13
1.073706114e-13
8.343503954e-12
7.58500359e-12
6.895457815e-12
6.268598018e-12
5.698725458e-12
5.180659517e-12
4.70969047e-12
4.281536791e-12
3.892306167e-12
3.538460156e-12
3.216781961e-12
2.924347234e-12
2.65849749e-12
2.416815896e-12
2.19710536e-12
1.997368513e-12
1.815789553e-12
1.650717775e-12
1.500652529e-12
1.364229568e-12
1.240208697e-12
1.12746245e-12
1.02496587e-12
9.317871516e-13
8.470792279e-13
7.700720245e-13
7.000654801e-13
6.364231588e-13
5.785665154e-13
5.259695512e-13
4.781541408e-13
4.346855858e-13
3.951687045e-13
3.592442834e-13
3.265857204e-13
2.968960938e-13
2.699055489e-13
2.45368685e-13
2.230624318e-13
2.027840355e-13
1.843491166e-13
1.675901093e-13
1.523546465e-13
1.385042257e-13
1.2591293e-13
1.144662934e-13
1.040602758e-13
8.08626598e-12
7.351150886e-12
6.682864448e-12
6.07533132e-12
5.523028461e-12
5.020934974e-12
4.564486339e-12
4.149533036e-12
3.772302754e-12
3.429366144e-12
3.117605586e-12
2.834186893e-12
2.576533543e-12
2.342303217e-12
2.129366561e-12
1.935787787e-12
1.759807075e-12
1.599824614e-12
1.454386018e-12
1.322169104e-12
1.201971911e-12
1.092701736e-12
9.933652208e-13
9.030592885e-13
8.209629887e-13
7.463299889e-13
6.784818113e-13
6.168016419e-13
5.607287725e-13
5.097534216e-13
4.634122046e-13
4.212838256e-13
3.829852864e-13
3.481684486e-13
3.165167794e-13
2.877425116e-13
2.615841102e-13
2.378037406e-13
2.161852099e-13
1.965320154e-13
1.786654621e-13
1.624231506e-13
1.476574112e-13
1.342340118e-13
1.220309174e-13
1.109371913e-13
1.008520009e-13
7.836958897e-12
7.124508084e-12
6.476825537e-12
5.888023219e-12
5.352748369e-12
4.86613489e-12
4.423758991e-12
4.021599082e-12
3.65599916e-12
3.323635604e-12
3.021486914e-12
2.746806282e-12
2.497096624e-12
2.270087836e-12
2.063716215e-12
1.876105653e-12
1.70555059e-12
1.550500537e-12
1.409545948e-12
1.281405404e-12
1.164914002e-12
1.059012728e-12
9.627388494e-13
8.752171328e-13
7.956519381e-13
7.233199429e-13
6.575635876e-13
5.97785075e-13
5.434409842e-13
4.940372506e-13
4.491247764e-13
4.082952544e-13
3.711774947e-13
3.374340923e-13
3.067582735e-13
2.78871143e-13
2.535192294e-13
2.304720306e-13
2.095200193e-13
1.90472751e-13
1.731570402e-13
1.574154942e-13
1.431049962e-13
1.300954527e-13
1.18268591e-13
1.075168947e-13
9.77426401e-14
7.595338173e-12
6.904852881e-12
6.277138988e-12
5.706489993e-12
5.187718164e-12
4.716107431e-12
4.287370391e-12
3.897609446e-12
3.543281309e-12
3.221164831e-12
2.928331665e-12
2.662119692e-12
2.420108815e-12
2.200098919e-12
2.000089926e-12
1.818263573e-12
1.652966881e-12
1.502697164e-12
1.366088337e-12
1.241898485e-12
1.128998621e-12
1.026362381e-12
9.330567163e-13
8.482333754e-13
7.711212496e-13
7.010193171e-13
6.372902913e-13
5.793548057e-13
5.266861938e-13
4.788056232e-13
4.352778423e-13
3.957071324e-13
3.597337477e-13
3.270306857e-13
2.973006309e-13
2.702732865e-13
2.45702996e-13
2.233663638e-13
2.030603224e-13
1.846002991e-13
1.678184478e-13
1.525622282e-13
1.386929363e-13
1.26084489e-13
1.146222605e-13
1.04202049e-13
9.47291437e-14
7.361166848e-12
6.691969858e-12
6.083608967e-12
5.53055361e-12
5.027775998e-12
4.570705462e-12
4.155186783e-12
3.77744253e-12
3.434038658e-12
3.121853329e-12
2.838048482e-12
2.580044072e-12
2.345494614e-12
2.132267827e-12
1.938425298e-12
1.76220482e-12
1.602004378e-12
1.456367616e-12
1.323970565e-12
1.203609602e-12
1.094190546e-12
9.947186765e-13
9.042897118e-13
8.220815532e-13
7.473468659e-13
6.79406241e-13
6.176420401e-13
5.614927594e-13
5.104479696e-13
4.640436015e-13
4.218578224e-13
3.835071142e-13
3.486428224e-13
3.169480262e-13
2.881345765e-13
2.619405103e-13
2.381277446e-13
2.164797715e-13
1.967997842e-13
1.789089006e-13
1.626444493e-13
1.478585932e-13
1.344169043e-13
1.221971872e-13
1.110883498e-13
1.009894031e-13
9.180855628e-14
7.134215237e-12
6.485650211e-12
5.896045652e-12
5.360041505e-12
4.872764994e-12
4.429786367e-12
4.027078514e-12
3.660980468e-12
3.328164057e-12
3.025603691e-12
2.750548811e-12
2.500498916e-12
2.273180837e-12
2.06652803e-12
1.878661845e-12
1.707874408e-12
1.552613095e-12
1.41146645e-12
1.283151323e-12
1.1665012e-12
1.060455635e-12
9.640505757e-13
8.764096199e-13
7.967360153e-13
7.243054678e-13
6.584595154e-13
5.985995623e-13
5.441814161e-13
4.947103846e-13
4.497367062e-13
4.088515539e-13
3.716832336e-13
3.378938403e-13
3.071762241e-13
2.792511199e-13
2.53864641e-13
2.307860451e-13
2.09805499e-13
1.907322641e-13
1.73392973e-13
1.576299698e-13
1.432999754e-13
1.302727063e-13
1.184297344e-13
1.076633928e-13
9.787580599e-14
8.897801321e-14
6.91426075e-12
6.285691588e-12
5.714265085e-12
5.194786444e-12
4.722533121e-12
4.293211936e-12
3.902919941e-12
3.548109037e-12
3.225553666e-12
2.932321518e-12
2.665746835e-12
2.423406211e-12
2.203096559e-12
2.00281505e-12
1.820740954e-12
1.655219053e-12
1.50474459e-12
1.367949627e-12
1.243590575e-12
1.130536884e-12
1.027760802e-12
9.343280005e-13
8.493890968e-13
7.721719035e-13
7.01974457e-13
6.381585966e-13
5.801441815e-13
5.274037972e-13
4.794580036e-13
4.358709056e-13
3.962462805e-13
3.602238941e-13
3.274762592e-13
2.977056956e-13
2.706415483e-13
2.460377582e-13
2.236706968e-13
2.033370005e-13
1.848518111e-13
1.680471065e-13
1.527700913e-13
1.38881904e-13
1.262562777e-13
1.147784356e-13
1.043440303e-13
9.485820393e-14
8.623473837e-14
6.701087681e-12
6.091897888e-12
5.538088994e-12
5.034626361e-12
4.576933046e-12
4.160848231e-12
3.782589301e-12
3.438717546e-12
3.126106855e-12
2.841915326e-12
2.583559388e-12
2.34869035e-12
2.135173049e-12
1.941066405e-12
1.764605823e-12
1.604187115e-12
1.458351919e-12
1.325774472e-12
1.205249525e-12
1.095681383e-12
9.960739836e-13
9.055218019e-13
8.232016434e-13
7.483651277e-13
6.803319336e-13
6.184835754e-13
5.622577985e-13
5.111434492e-13
4.646758688e-13
4.224326014e-13
3.840296403e-13
3.491178575e-13
3.173798625e-13
2.88527153e-13
2.622974184e-13
2.38452186e-13
2.167747218e-13
1.970679323e-13
1.791526584e-13
1.628660584e-13
1.480600478e-13
1.346000461e-13
1.223636796e-13
1.1123971e-13
1.011270071e-13
9.193363755e-14
8.357604143e-14
6.49448692e-12
5.904079015e-12
5.367344563e-12
4.879404152e-12
4.435821946e-12
4.032565413e-12
3.665968557e-12
3.332698688e-12
3.029726076e-12
2.754296436e-12
2.503905851e-12
2.276278044e-12
2.06934368e-12
1.881221524e-12
1.710201385e-12
1.554728535e-12
1.413389574e-12
1.284899613e-12
1.168090562e-12
1.061900508e-12
9.65364097e-13
8.776037232e-13
7.978215717e-13
7.252923354e-13
6.593566679e-13
5.99415152e-13
5.44922868e-13
4.953844216e-13
4.5034948e-13
4.094086117e-13
3.721896496e-13
3.383542295e-13
3.075947464e-13
2.796315927e-13
2.542105453e-13
2.311004835e-13
2.100913557e-13
1.909921448e-13
1.736292154e-13
1.578447464e-13
1.434952189e-13
1.304502016e-13
1.185910936e-13
1.078100864e-13
9.800916752e-14
8.909923807e-14
8.09993144e-14
6.294255862e-12
5.72205078e-12
5.20186435e-12
4.728967594e-12
4.29906144e-12
3.90823768e-12
3.552943345e-12
3.229948495e-12
2.936316809e-12
2.669378921e-12
2.42670811e-12
2.20609828e-12
2.005543894e-12
1.823221719e-12
1.65747429e-12
1.506794812e-12
1.369813462e-12
1.245284966e-12
1.132077246e-12
1.02916113e-12
9.356010261e-13
8.505463861e-13
7.732239923e-13
7.029308996e-13
6.3902809e-13
5.809346266e-13
5.281223903e-13
4.801112602e-13
4.364647876e-13
3.967861643e-13
3.607146973e-13
3.279224546e-13
2.981113149e-13
2.710102913e-13
2.463729983e-13
2.239754411e-13
2.036140443e-13
1.851036797e-13
1.682760656e-13
1.529782464e-13
1.390711282e-13
1.264283008e-13
1.149348202e-13
1.044862014e-13
9.498745395e-14
8.635222588e-14
7.850203037e-14
6.100198107e-12
5.545634639e-12
5.04148604e-12
4.58316913e-12
4.166517382e-12
3.787743082e-12
3.443402801e-12
3.130366183e-12
2.845787435e-12
2.587079489e-12
2.351890445e-12
2.138082221e-12
1.943711113e-12
1.767010099e-12
1.606372818e-12
1.460338928e-12
1.327580841e-12
1.206891673e-12
1.097174253e-12
9.974311364e-13
9.067555774e-13
8.24323251e-13
7.493847784e-13
6.812588871e-13
6.193262604e-13
5.630238724e-13
5.118398865e-13
4.653089841e-13
4.230081728e-13
3.845528783e-13
3.495935281e-13
3.178123007e-13
2.889202661e-13
2.626547922e-13
2.387770899e-13
2.170700702e-13
1.973364341e-13
1.793967613e-13
1.630879582e-13
1.48261785e-13
1.347834361e-13
1.225303989e-13
1.113912729e-13
1.012647947e-13
9.205890251e-14
8.368990654e-14
7.608173986e-14
5.912123333e-12
5.374657573e-12
4.886052343e-12
4.441865769e-12
4.038059781e-12
3.670963445e-12
3.337239495e-12
3.033854086e-12
2.758049165e-12
2.507317426e-12
2.279379478e-12
2.07216316e-12
1.883784694e-12
1.712531537e-12
1.556846852e-12
1.415315323e-12
1.28665029e-12
1.169682082e-12
1.063347352e-12
9.666794081e-13
8.787994608e-13
7.989085995e-13
7.262805497e-13
6.602550428e-13
6.002318565e-13
5.456653235e-13
4.960593874e-13
4.509630759e-13
4.099664379e-13
3.726967559e-13
3.38815235e-13
3.080138523e-13
2.80012586e-13
2.54556901e-13
2.314153704e-13
2.103775984e-13
1.912523686e-13
1.738657925e-13
1.58059805e-13
1.436907365e-13
1.306279376e-13
1.187526729e-13
1.079569765e-13
9.814270707e-14
8.922064104e-14
8.1109669e-14
7.373606915e-14
5.729847105e-12
5.208951911e-12
4.735410832e-12
4.304918941e-12
3.913562665e-12
3.557784248e-12
3.234349316e-12
2.94031756e-12
2.673015959e-12
2.430014511e-12
2.209104102e-12
2.008276454e-12
1.82570587e-12
1.659732606e-12
1.508847824e-12
1.371679843e-12
1.246981672e-12
1.133619702e-12
1.03056337e-12
9.368757882e-13
8.517052609e-13
7.742775088e-13
7.038886489e-13
6.398987694e-13
5.817261535e-13
5.288419571e-13
4.807654178e-13
4.370594674e-13
3.973267936e-13
3.612061703e-13
3.28369248e-13
2.985175005e-13
2.713795391e-13
2.467086764e-13
2.242806206e-13
2.038914625e-13
1.853558812e-13
1.685053494e-13
1.531866751e-13
1.392606182e-13
1.266005575e-13
1.150914182e-13
1.046285631e-13
9.511687668e-14
8.646988619e-14
7.860898291e-14
7.146271797e-14
5.553190594e-12
5.048355083e-12
4.589413716e-12
4.17219429e-12
3.792903891e-12
3.448094453e-12
3.134631321e-12
2.849664837e-12
2.590604393e-12
2.355094906e-12
2.140995369e-12
1.946359425e-12
1.769417661e-12
1.608561508e-12
1.462328643e-12
1.329389679e-12
1.208536069e-12
1.098669153e-12
9.987901432e-13
9.079910371e-13
8.254463962e-13
7.504058137e-13
6.821871077e-13
6.201700957e-13
5.637909956e-13
5.125372682e-13
4.659429732e-13
4.235845178e-13
3.850768393e-13
3.500698485e-13
3.18245319e-13
2.893139285e-13
2.630126557e-13
2.391024187e-13
2.173658407e-13
1.976052993e-13
1.796411872e-13
1.633101729e-13
1.484637875e-13
1.34967084e-13
1.226973447e-13
1.115430428e-13
1.014027673e-13
9.218433498e-14
8.380393925e-14
7.618539492e-14
6.925945597e-14
5.381980564e-12
4.892709601e-12
4.447917823e-12
4.04356166e-12
3.675965137e-12
3.341786495e-12
3.037987722e-12
2.76180702e-12
2.510733651e-12
2.28248514e-12
2.074986491e-12
1.886351353e-12
1.714864869e-12
1.55896806e-12
1.417243691e-12
1.288403358e-12
1.171275778e-12
1.064796162e-12
9.679965142e-13
8.79996829e-13
7.999971162e-13
7.272701046e-13
6.611546448e-13
6.010496749e-13
5.464087949e-13
4.967352675e-13
4.515775181e-13
4.105250132e-13
3.732045623e-13
3.392768695e-13
3.084335198e-13
2.803941111e-13
2.549037309e-13
2.317306688e-13
2.106642496e-13
1.915129441e-13
1.741026823e-13
1.582751684e-13
1.438865109e-13
1.308059232e-13
1.189144714e-13
1.08104067e-13
9.827642565e-14
8.934220621e-14
8.122018586e-14
7.383652835e-14
6.712412253e-14
5.216049018e-12
4.741862741e-12
4.310784314e-12
3.918894833e-12
3.562631659e-12
3.23875606e-12
2.94432369e-12
2.6766579e-12
2.43332536e-12
2.212113966e-12
2.011012697e-12
1.828193359e-12
1.661993965e-12
1.510903602e-12
1.373548729e-12
1.248680666e-12
1.135164239e-12
1.03196749e-12
9.381522672e-13
8.528656954e-13
7.753324493e-13
7.048476802e-13
6.407706224e-13
5.825187456e-13
5.295624955e-13
4.814204499e-13
4.376549566e-13
3.978681392e-13
3.61698313e-13
3.288166431e-13
2.98924223e-13
2.717492957e-13
2.470448081e-13
2.245861933e-13
2.041692718e-13
1.856084191e-13
1.687349321e-13
1.533953954e-13
1.394503538e-13
1.26773053e-13
1.152482259e-13
1.047711165e-13
9.52464706e-14
8.658770158e-14
7.87160908e-14
7.156007842e-14
6.505462242e-14
5.055233479e-12
4.595666797e-12
4.17787891e-12
3.798071738e-12
3.452792482e-12
3.138902262e-12
2.853547511e-12
2.594134101e-12
2.358303724e-12
2.143912479e-12
1.949011345e-12
1.771828494e-12
1.610753179e-12
1.464321069e-12
1.331200972e-12
1.210182704e-12
1.100166092e-12
1.000150993e-12
9.092281788e-13
8.265710696e-13
7.514282441e-13
6.831165846e-13
6.210150809e-13
5.645591624e-13
5.132356017e-13
4.665778192e-13
4.241616559e-13
3.856015023e-13
3.505468248e-13
3.186789266e-13
2.897081171e-13
2.633710176e-13
2.394281918e-13
2.176619965e-13
1.978745473e-13
1.798859426e-13
1.635326806e-13
1.486660758e-13
1.351509725e-13
1.228645244e-13
1.116950182e-13
1.015409276e-13
9.230993522e-14
8.391812392e-14
7.628920207e-14
6.935381606e-14
6.304892919e-14
4.899375973e-12
4.453978155e-12
4.049071053e-12
3.680973687e-12
3.346339708e-12
3.042127014e-12
2.765570012e-12
2.514154556e-12
2.285595048e-12
2.077813682e-12
1.88892153e-12
1.717201389e-12
1.561092174e-12
1.419174701e-12
1.290158819e-12
1.172871656e-12
1.066246958e-12
9.693154162e-13
8.811958363e-13
8.01087122e-13
7.28261019e-13
6.620554709e-13
6.018686138e-13
5.471532833e-13
4.974120752e-13
4.521927952e-13
4.110843612e-13
3.737130527e-13
3.397391432e-13
3.088537617e-13
2.807761489e-13
2.552510464e-13
2.320464e-13
2.109512766e-13
1.917738927e-13
1.743398932e-13
1.584908174e-13
1.440825637e-13
1.309841435e-13
1.190764979e-13
1.082513579e-13
9.841032728e-14
8.946393486e-14
8.133085084e-14
7.393713568e-14
6.721557401e-14
6.110507261e-14
4.748323585e-12
4.316657802e-12
3.924234369e-12
3.567485792e-12
3.243168895e-12
2.948335365e-12
2.680304877e-12
2.436640797e-12
2.215127994e-12
2.013752724e-12
1.830684295e-12
1.664258448e-12
1.512962228e-12
1.375420205e-12
1.250382004e-12
1.136710915e-12
1.033373557e-12
9.394305065e-13
8.540277365e-13
7.763888495e-13
7.05808044e-13
6.416436755e-13
5.83312436e-13
5.302840308e-13
4.820763912e-13
4.382512643e-13
3.984102421e-13
3.621911264e-13
3.292646646e-13
2.993315086e-13
2.721195551e-13
2.473814156e-13
2.248921904e-13
2.044474496e-13
1.858613225e-13
1.689648297e-13
1.536043958e-13
1.396403622e-13
1.269457786e-13
1.15405257e-13
1.049138663e-13
9.537624395e-14
8.670567726e-14
7.88233439e-14
7.165758396e-14
6.514325439e-14
5.922114552e-14
4.601928364e-12
4.183571238e-12
3.803246583e-12
3.457496896e-12
3.14317899e-12
2.857435451e-12
2.597668591e-12
2.361516901e-12
2.146833543e-12
1.95166686e-12
1.7742426e-12
1.612947816e-12
1.466316199e-12
1.333014724e-12
1.211831567e-12
1.101665064e-12
1.001513692e-12
9.104669926e-13
8.276972692e-13
7.524520611e-13
6.840473273e-13
6.218612057e-13
5.653283725e-13
5.139348823e-13
4.672135289e-13
4.247395713e-13
3.861268848e-13
3.51024438e-13
3.191131295e-13
2.901028405e-13
2.637298568e-13
2.397544171e-13
2.179585555e-13
1.98144145e-13
1.801310455e-13
1.637554873e-13
1.488686298e-13
1.353351203e-13
1.230319225e-13
1.118472059e-13
1.016792745e-13
9.243570588e-14
8.40324608e-14
7.639314709e-14
6.944831417e-14
6.313482743e-14
5.739530267e-14
4.460046683e-12
4.054587891e-12
3.685988995e-12
3.350899088e-12
3.046271892e-12
2.769338089e-12
2.51758008e-12
2.288709164e-12
2.080644691e-12
1.891495176e-12
1.71954107e-12
1.563219153e-12
1.421108323e-12
1.291916655e-12
1.174469686e-12
1.067699717e-12
9.706361041e-13
8.823964583e-13
8.021786015e-13
7.292532723e-13
6.629575194e-13
6.026886531e-13
5.478987791e-13
4.980897974e-13
4.528089063e-13
4.116444598e-13
3.74222238e-13
3.402020319e-13
3.092745784e-13
2.811587032e-13
2.555988229e-13
2.32362568e-13
2.112386929e-13
1.920351789e-13
1.745774398e-13
1.587067551e-13
1.442788731e-13
1.311626141e-13
1.192387352e-13
1.083988537e-13
9.854440897e-14
8.95858281e-14
8.144166279e-14
7.403787614e-14
6.730715881e-14
6.118832266e-14
5.562575272e-14
4.322539325e-12
3.929581202e-12
3.572346551e-12
3.247587775e-12
2.952352517e-12
2.683956839e-12
2.439960762e-12
2.218146147e-12
2.016496494e-12
1.833178633e-12
1.666526031e-12
1.515023663e-12
1.377294241e-12
1.252085671e-12
1.138259701e-12
1.034781549e-12
9.407104967e-13
8.551913607e-13
7.774466945e-13
7.067697206e-13
6.425179269e-13
5.841072055e-13
5.310065538e-13
4.827332291e-13
4.388483896e-13
3.98953081e-13
3.626846208e-13
3.297132891e-13
2.997393576e-13
2.724903208e-13
2.477184752e-13
2.251986155e-13
2.04726009e-13
1.86114557e-13
1.691950561e-13
1.538136793e-13
1.398306222e-13
1.271187496e-13
1.155624949e-13
1.05056817e-13
9.550619385e-14
8.68238143e-14
7.893074112e-14
7.175522006e-14
6.523201695e-14
5.930183017e-14
5.391075941e-14
4.189271307e-12
3.808428459e-12
3.462207692e-12
3.147461541e-12
2.861328667e-12
2.601207884e-12
2.36473444e-12
2.149758582e-12
1.95432598e-12
1.776659984e-12
1.615145441e-12
1.468314035e-12
1.334830943e-12
1.213482674e-12
1.103166067e-12
1.002878245e-12
9.117074931e-13
8.288249937e-13
7.534772699e-13
6.849793347e-13
6.227084852e-13
5.660986221e-13
5.146351143e-13
4.678501023e-13
4.253182744e-13
3.866529763e-13
3.515027074e-13
3.195479133e-13
2.904981067e-13
2.640891838e-13
2.400810778e-13
2.18255527e-13
1.984141105e-13
1.803764674e-13
1.639786108e-13
1.490714565e-13
1.355195105e-13
1.231995571e-13
1.119995928e-13
1.018178149e-13
9.256164662e-14
8.414695313e-14
7.649723094e-14
6.954293805e-14
6.322085153e-14
5.747349808e-14
5.224863917e-14
4.06011224e-12
3.691011125e-12
3.355464662e-12
3.050422422e-12
2.773111287e-12
2.521010266e-12
2.291827514e-12
2.083479558e-12
1.894072323e-12
1.721883932e-12
1.565349029e-12
1.42304457e-12
1.293676884e-12
1.176069893e-12
1.069154448e-12
9.71958591e-13
8.835987171e-13
8.03271561e-13
7.302468764e-13
6.638607952e-13
6.03509813e-13
5.486452837e-13
4.98768443e-13
4.534258556e-13
4.122053229e-13
3.747321113e-13
3.406655574e-13
3.096959588e-13
2.815417844e-13
2.559470727e-13
2.326791586e-13
2.115265094e-13
1.922968219e-13
1.748152959e-13
1.589230003e-13
1.444754472e-13
1.3134132e-13
1.19401202e-13
1.085465429e-13
9.867867855e-14
8.970788638e-14
8.155262559e-14
7.413875134e-14
6.739886565e-14
6.127169484e-14
5.570153756e-14
5.063776583e-14
3.934935232e-12
3.577213845e-12
3.252012589e-12
2.956375083e-12
2.687613706e-12
2.443285192e-12
2.221168356e-12
2.01924396e-12
1.835676325e-12
1.668796661e-12
1.517087874e-12
1.379170793e-12
1.253791632e-12
1.139810572e-12
1.036191429e-12
9.419922105e-13
8.56356553e-13
7.785059573e-13
7.077326912e-13
6.43393354e-13
5.849030484e-13
5.317300432e-13
4.833909515e-13
4.39446318e-13
3.994966523e-13
3.631787744e-13
3.301625238e-13
3.001477465e-13
2.728615913e-13
2.480559882e-13
2.255054453e-13
2.050049519e-13
1.863681334e-13
1.694255789e-13
1.540232575e-13
1.400211358e-13
1.272919459e-13
1.157199527e-13
1.051999528e-13
9.56363238e-14
8.694210943e-14
7.903828286e-14
7.18529852e-14
6.532089641e-14
5.938263193e-14
5.398420774e-14
4.907655677e-14
3.813617527e-12
3.466925022e-12
3.151750023e-12
2.865227295e-12
2.604752081e-12
2.367956442e-12
2.152687674e-12
1.956988795e-12
1.77908072e-12
1.617346111e-12
1.470314647e-12
1.336649677e-12
1.215136072e-12
1.104669154e-12
1.004244686e-12
9.129497163e-13
8.299542857e-13
7.545038961e-13
6.859126354e-13
6.235569398e-13
5.668699445e-13
5.153363125e-13
4.684875598e-13
4.258977801e-13
3.871797997e-13
3.519816357e-13
3.199833067e-13
2.908939129e-13
2.644490152e-13
2.404081918e-13
2.185529032e-13
1.986844589e-13
1.806222309e-13
1.642020311e-13
1.492745775e-13
1.357041542e-13
1.23367417e-13
1.121521992e-13
1.019565406e-13
9.268776718e-14
8.426160351e-14
7.660145924e-14
6.963769097e-14
6.330699255e-14
5.755181028e-14
5.231982451e-14
4.756348097e-14
3.696040139e-12
3.360036488e-12
3.054578628e-12
2.776889664e-12
2.524445143e-12
2.294950135e-12
2.086318304e-12
1.896653004e-12
1.724230001e-12
1.567481821e-12
1.424983474e-12
1.29543952e-12
1.177672293e-12
1.070611173e-12
9.732828849e-13
8.848026245e-13
8.043660205e-13
7.312418368e-13
6.647653087e-13
6.043320974e-13
5.493928151e-13
4.99448013e-13
4.540436511e-13
4.127669541e-13
3.752426851e-13
3.411297134e-13
3.101179227e-13
2.819253821e-13
2.562958052e-13
2.329961829e-13
2.118147132e-13
1.925588316e-13
1.750534789e-13
1.591395292e-13
1.446723029e-13
1.315202685e-13
1.195638844e-13
1.086944422e-13
9.881312527e-14
8.983011681e-14
8.166373963e-14
7.423976476e-14
6.749069597e-14
6.135517888e-14
5.577743425e-14
5.070675549e-14
4.609705446e-14
3.582087853e-12
3.256443501e-12
2.960403185e-12
2.691275625e-12
2.446614199e-12
2.224194731e-12
2.021995209e-12
1.838177463e-12
1.671070419e-12
1.519154928e-12
1.381049935e-12
1.255499939e-12
1.141363583e-12
1.037603255e-12
9.432756867e-13
8.575233533e-13
7.79566683e-13
7.086969846e-13
6.442699885e-13
5.856999881e-13
5.324545339e-13
4.840495756e-13
4.400450716e-13
4.000409727e-13
3.636736112e-13
3.306123735e-13
3.005567046e-13
2.732333657e-13
2.48393972e-13
2.258126983e-13
2.052842726e-13
1.866220674e-13
1.696564206e-13
1.542331125e-13
1.40211924e-13
1.274653787e-13
1.158776209e-13
1.053432935e-13
9.576662657e-14
8.706057245e-14
7.914597212e-14
7.195088516e-14
6.540989631e-14
5.946354281e-14
5.405776513e-14
4.914342001e-14
4.467584027e-14
3.471648673e-12
3.156044246e-12
2.869131135e-12
2.608301034e-12
2.371182753e-12
2.155620689e-12
1.959655171e-12
1.781504701e-12
1.619549726e-12
1.472317934e-12
1.33847085e-12
1.21679168e-12
1.106174256e-12
1.005612959e-12
9.141935988e-13
8.310850915e-13
7.555318996e-13
6.868471815e-13
6.24406531e-13
5.676422996e-13
5.160384535e-13
4.691258661e-13
4.264780628e-13
3.877073285e-13
3.524612074e-13
3.204192791e-13
2.912902551e-13
2.648093207e-13
2.407357492e-13
2.188506777e-13
1.989551629e-13
1.808683313e-13
1.644257516e-13
1.494779587e-13
1.358890568e-13
1.235354997e-13
1.123050035e-13
1.020954594e-13
9.281405026e-14
8.437641207e-14
7.670582641e-14
6.973257083e-14
6.33932469e-14
5.763022514e-14
5.239111273e-14
4.762828156e-14
4.329844156e-14
3.364614554e-12
3.058740502e-12
2.780673186e-12
2.527884716e-12
2.29807701e-12
2.089160922e-12
1.899237201e-12
1.726579274e-12
1.569617519e-12
1.426925019e-12
1.297204563e-12
1.179276874e-12
1.072069888e-12
9.74608987e-13
8.8600817e-13
8.054619744e-13
7.322381569e-13
6.656710517e-13
6.051555039e-13
5.501413658e-13
5.001285137e-13
4.546622845e-13
4.133293522e-13
3.757539553e-13
3.415945044e-13
3.105404583e-13
2.823095088e-13
2.56645006e-13
2.333136448e-13
2.121033102e-13
1.928211924e-13
1.752919944e-13
1.593563546e-13
1.448694159e-13
1.316994723e-13
1.197267867e-13
1.08842537e-13
9.89477626e-14
8.99525078e-14
8.177500975e-14
7.434091529e-14
6.75826516e-14
6.143877484e-14
5.585343234e-14
5.077584658e-14
4.615985787e-14
4.196351081e-14
3.260880396e-12
2.964436722e-12
2.694942477e-12
2.449947708e-12
2.227225184e-12
2.024750171e-12
1.840681974e-12
1.673347249e-12
1.521224769e-12
1.38293161e-12
1.257210555e-12
1.142918685e-12
1.039016988e-12
9.445608966e-13
8.586917242e-13
7.806288418e-13
7.096625818e-13
6.451478016e-13
5.864980037e-13
5.331800021e-13
4.847090922e-13
4.406446286e-13
4.005860286e-13
3.641691156e-13
3.310628321e-13
3.009662106e-13
2.736056473e-13
2.487324047e-13
2.261203708e-13
2.055639703e-13
1.868763379e-13
1.698875812e-13
1.544432518e-13
1.404029587e-13
1.276390566e-13
1.160354999e-13
1.054868216e-13
9.589711218e-14
8.717918934e-14
7.925381107e-14
7.204891658e-14
6.549901636e-14
5.954456097e-14
5.413141971e-14
4.921038059e-14
4.473670705e-14
4.066973722e-14
3.160344409e-12
2.87304037e-12
2.611854884e-12
2.374413533e-12
2.158557752e-12
1.962325233e-12
1.78393203e-12
1.621756391e-12
1.474323989e-12
1.340294537e-12
1.21844958e-12
1.107681435e-12
1.006983124e-12
9.154392022e-13
8.322174566e-13
7.565613257e-13
6.877830218e-13
6.252572926e-13
5.684157227e-13
5.167415648e-13
4.697650583e-13
4.270591433e-13
3.882355873e-13
3.529414418e-13
3.208558558e-13
2.916871414e-13
2.651701298e-13
2.410637525e-13
2.191488687e-13
1.992262411e-13
1.811147659e-13
1.646497884e-13
1.496816221e-13
1.360742044e-13
1.237038253e-13
1.124580171e-13
1.022345644e-13
9.294051467e-14
8.449137354e-14
7.681034208e-14
6.982758121e-14
6.347962053e-14
5.770874656e-14
5.24624975e-14
4.769317861e-14
4.33574326e-14
3.941585125e-14
3.06290802e-12
2.784461835e-12
2.531328943e-12
2.301208132e-12
2.092007388e-12
1.901824902e-12
1.728931728e-12
1.571756117e-12
1.428869195e-12
1.298971997e-12
1.180883634e-12
1.073530575e-12
9.759368879e-13
8.872153511e-13
8.065594101e-13
7.332358289e-13
6.665780247e-13
6.059800225e-13
5.508909317e-13
5.008099367e-13
4.5528176e-13
4.138925085e-13
3.762659192e-13
3.420599254e-13
3.109635682e-13
2.826941526e-13
2.569946854e-13
2.336315304e-13
2.123923031e-13
1.930839088e-13
1.755308274e-13
1.595734807e-13
1.45066797e-13
1.318789088e-13
1.198899201e-13
1.089908307e-13
9.90825767e-14
9.007507124e-14
8.188642507e-14
7.444220703e-14
6.767473124e-14
6.152248416e-14
5.592953166e-14
5.084502939e-14
4.622275308e-14
4.202068219e-14
3.820062351e-14
2.968475692e-12
2.698614264e-12
2.453285697e-12
2.230259726e-12
2.027508837e-12
1.843189855e-12
1.675627141e-12
1.523297401e-12
1.384815817e-12
1.258923471e-12
1.144475883e-12
1.04043262e-12
9.458478379e-13
8.598616694e-13
7.816924267e-13
7.106294803e-13
6.460267988e-13
5.872970898e-13
5.339064473e-13
4.853694964e-13
4.412449961e-13
4.011318141e-13
3.646652879e-13
3.315138969e-13
3.013762696e-13
2.739784266e-13
2.490712981e-13
2.264284511e-13
2.058440491e-13
1.871309508e-13
1.701190473e-13
1.546536806e-13
1.405942515e-13
1.278129583e-13
1.161936014e-13
1.056305411e-13
9.602776789e-14
8.729797228e-14
7.936178975e-14
7.214708394e-14
6.558825578e-14
5.962568825e-14
5.420517172e-14
4.927742942e-14
4.479766223e-14
4.072514513e-14
3.702286244e-14
2.876954921e-12
2.615413563e-12
2.377648696e-12
2.161498816e-12
1.964998919e-12
1.786362657e-12
1.623966052e-12
1.476332774e-12
1.342120702e-12
1.22010973e-12
1.109190664e-12
1.008355148e-12
9.166864998e-13
8.33351362e-13
7.575921473e-13
6.887201353e-13
6.261092125e-13
5.691901932e-13
5.174456322e-13
4.70405119e-13
4.276410167e-13
3.887645601e-13
3.534223296e-13
3.212930258e-13
2.920845686e-13
2.655314257e-13
2.413922063e-13
2.194474586e-13
1.994976922e-13
1.813615355e-13
1.648741243e-13
1.498855687e-13
1.362596045e-13
1.2387237e-13
1.126112483e-13
1.023738567e-13
9.306714558e-14
8.460649741e-14
7.691499451e-14
6.992272456e-14
6.356611096e-14
5.778737474e-14
5.25339776e-14
4.775816203e-14
4.341651008e-14
3.946955234e-14
3.588141435e-14
2.788255687e-12
2.534777896e-12
2.304343543e-12
2.094857768e-12
1.904416149e-12
1.731287411e-12
1.573897646e-12
1.430816042e-12
1.300741854e-12
1.182492596e-12
1.07499327e-12
9.772666077e-13
8.884241902e-13
8.076583533e-13
7.342348667e-13
6.674862438e-13
6.068056748e-13
5.516415226e-13
5.014922952e-13
4.559020854e-13
4.144564407e-13
3.767785819e-13
3.425259858e-13
3.113872587e-13
2.830793258e-13
2.573448414e-13
2.339498569e-13
2.126816864e-13
1.933469901e-13
1.757699883e-13
1.597908995e-13
1.452644552e-13
1.320585924e-13
1.20053268e-13
1.091393373e-13
9.921757412e-14
9.019779768e-14
8.199799927e-14
7.454363267e-14
6.7766941e-14
6.160630779e-14
5.600573546e-14
5.091430551e-14
4.628573284e-14
4.207793812e-14
3.825266881e-14
3.477515649e-14
2.702291187e-12
2.45662835e-12
2.233298502e-12
2.030271367e-12
1.845701238e-12
1.67791022e-12
1.525372927e-12
1.386702661e-12
1.260638781e-12
1.146035257e-12
1.041850233e-12
9.471365748e-13
8.610332512e-13
7.827574997e-13
7.11597727e-13
6.469070259e-13
5.88097295e-13
5.346339045e-13
4.860308241e-13
4.418462027e-13
4.016783656e-13
3.6516215e-13
3.31965593e-13
3.017869017e-13
2.743517285e-13
2.49410662e-13
2.267369666e-13
2.061245134e-13
1.873859237e-13
1.703508371e-13
1.548643984e-13
1.407858178e-13
1.279871039e-13
1.163519148e-13
1.057744706e-13
9.615860459e-14
8.741691621e-14
7.946992516e-14
7.224538357e-14
6.567762356e-14
5.970692838e-14
5.427902686e-14
4.934457041e-14
4.485870091e-14
4.078063639e-14
3.707330367e-14
3.370300628e-14
2.618977009e-12
2.380888189e-12
2.16444381e-12
1.967676192e-12
1.788796534e-12
1.626178671e-12
1.478344246e-12
1.343949314e-12
1.221772102e-12
1.110701912e-12
1.009729011e-12
9.179354639e-13
8.344867866e-13
7.586243502e-13
6.896585002e-13
6.269622742e-13
5.699657025e-13
5.181506386e-13
4.710460369e-13
4.282236689e-13
3.892942439e-13
3.539038576e-13
3.217307817e-13
2.924825278e-13
2.658932068e-13
2.417210969e-13
2.197464527e-13
1.997695009e-13
1.816086395e-13
1.650987606e-13
1.500897834e-13
1.364452587e-13
1.240411412e-13
1.127646759e-13
1.025133443e-13
9.319394442e-14
8.47217705e-14
7.701979266e-14
7.001799048e-14
6.365272069e-14
5.786610765e-14
5.260555344e-14
4.782323092e-14
4.347566499e-14
3.952333103e-14
3.593029887e-14
3.266391091e-14
2.538231501e-12
2.307483181e-12
2.097711985e-12
1.907010896e-12
1.733646266e-12
1.576042063e-12
1.432765511e-12
1.302514101e-12
1.184103727e-12
1.076457935e-12
9.785981226e-13